THERMO ALL
300      1500.      500
! ------------------------------------------------------------------------------
!  Surface
! ------------------------------------------------------------------------------
PT(S)                   PT  1               S      100.     1500.     500      1
          0E+00          0E+00          0E+00          0E+00          0E+00    2
          0E+00          0E+00          0E+00          0E+00          0E+00    3
          0E+00          0E+00          0E+00          0E+00                   4
PT(B)                   PT  1               S      100.     1500.     500      1
          0E+00          0E+00          0E+00          0E+00          0E+00    2
          0E+00          0E+00          0E+00          0E+00          0E+00    3
          0E+00          0E+00          0E+00          0E+00                   4
! ------------------------------------------------------------------------------
!  General Gas Species
! ------------------------------------------------------------------------------
HE                L10/90HE  1    0    0    0G       200      6000    1000      1
   2.500000E+00   0.000000E+00   0.000000E+00   0.000000E+00   0.000000E+00    2
  -7.453750E+02   9.287240E-01   2.500000E+00   0.000000E+00   0.000000E+00    3
   0.000000E+00   0.000000E+00  -7.453750E+02   9.287240E-01                   4
! CurranPentane
N2                      N   2               G   100.000  5000.000 1476.50      1
 2.83317744E+00 1.60016503E-03-6.09980897E-07 1.06349431E-10-6.90914308E-15    2
-8.72927385E+02 6.54633959E+00 3.54136017E+00-6.93374234E-04 2.10102428E-06    3
-1.28972949E-09 2.58598645E-13-1.04117820E+03 2.99222674E+00                   4
! ------------------------------------------------------------------------------
!  Surface Species va GA
! ------------------------------------------------------------------------------
300      1500       500
CH3CH2CH3(S)    20180521C   3O   0H   8N   0S       100      1500     400      1
  -3.175310E+00   4.286511E-02  -2.813895E-05   1.033655E-08  -1.692267E-12    2
  -1.570477E+04   3.688768E+01   1.459350E+00   2.738169E-02  -6.838832E-05    3
   2.122918E-07  -1.941349E-10  -1.635970E+04   1.545584E+01                   4
! Included in WGS section below
!O(S)            20180521C   0O   1H   0N   0S       100      1500     600      1
!   2.898383E+00   2.816656E-03  -2.997761E-06   1.490825E-09  -2.856030E-13    2
!  -1.685116E+04  -1.575629E+01  -9.640670E-01   3.011296E-02  -7.792957E-05    3
!   9.536322E-08  -4.516459E-11  -1.639544E+04   7.567469E-01                   4
CH2CH3(S)       20180521C   2O   0H   5N   0S       100      1500     500      1
  -1.325723E-01   2.971199E-02  -2.229604E-05   9.415404E-09  -1.717035E-12    2
  -1.265118E+04   5.043376E+00   1.558675E+00   2.144760E-02  -2.769497E-05    3
   7.850875E-08  -7.925278E-11  -1.283379E+04  -2.327391E+00                   4
CH3(S)          20180521C   1O   0H   3N   0S       100      1500     600      1
   2.469726E+00   1.296640E-02  -8.237423E-06   3.060032E-09  -5.254884E-13    2
  -7.572226E+03  -1.198822E+01   2.827973E+00   4.609387E-03   2.775935E-05    3
  -5.460271E-08   3.151364E-11  -7.504680E+03  -1.263146E+01                   4
CH3CHCH3(S)     20180521C   3O   0H   7N   0S       100      1500     500      1
  -1.325281E+00   4.205616E-02  -2.983478E-05   1.163676E-08  -1.951468E-12    2
  -1.840022E+04   1.466252E+01   1.300398E+00   3.500194E-02  -7.358093E-05    3
   1.924683E-07  -1.742071E-10  -1.875742E+04   2.497179E+00                   4
CH2CH2CH3(S)    20180521C   3O   0H   7N   0S       100      1500     500      1
  -1.962681E+00   4.427993E-02  -3.308076E-05   1.373822E-08  -2.455411E-12    2
  -1.463920E+04   1.855105E+01   1.740082E+00   2.454324E-02  -2.275600E-05    3
   9.430267E-08  -1.062341E-10  -1.506390E+04   2.382269E+00                   4
! Included in WGS section below
!OH(S)           20180521C   0O   1H   1N   0S       100      1500     700      1
!   4.326686E+00   3.352022E-03  -2.989346E-06   1.642213E-09  -3.684803E-13    2
!  -2.074052E+04  -1.992929E+01   2.640777E+00   1.063366E-02  -1.307879E-05    3
!   5.164737E-09   9.824853E-13  -2.044768E+04  -1.199383E+01                   4
CH2(S)          20180521C   1O   0H   2N   0S       100      1500     500      1
   1.606947E+00   1.386357E-02  -1.247322E-05   6.112819E-09  -1.229500E-12    2
  -2.229142E+03  -1.049244E+01   9.640960E-01   2.033248E-03   7.666096E-05    3
  -1.926305E-07   1.446485E-10  -1.949225E+03  -5.722359E+00                   4
CHCH3(S)        20180521C   2O   0H   4N   0S       100      1500     500      1
  -1.582097E-02   2.688375E-02  -2.174762E-05   9.777845E-09  -1.865654E-12    2
  -7.220368E+03   3.362838E+00   4.911750E-01   2.437417E-02  -2.989334E-05    3
   5.790033E-08  -5.356307E-11  -7.249569E+03   1.287729E+00                   4
CH2CH2(S)       20180521C   2O   0H   4N   0S       100      1500     600      1
   1.009344E+00   2.672318E-02  -2.146043E-05   9.573129E-09  -1.810715E-12    2
  -9.014147E+03  -5.361453E+00   2.128024E+00   7.282785E-03   5.678278E-05    3
  -1.108961E-07   6.299907E-11  -8.924315E+03  -8.363166E+00                   4
CH3CH2O(S)      20180521C   2O   1H   5N   0S       100      1500     500      1
  -8.030423E-01   3.496205E-02  -2.649357E-05   1.098729E-08  -1.943762E-12    2
  -2.420262E+04   1.367520E+01   1.142400E+00   3.128931E-02  -6.937116E-05    3
   1.686478E-07  -1.474996E-10  -2.448340E+04   4.486233E+00                   4
CH3O(S)         20180521C   1O   1H   3N   0S       100      1500     400      1
   9.407144E-01   1.946595E-02  -1.419743E-05   5.674198E-09  -9.733446E-13    2
  -1.963401E+04   1.038915E+00   1.231743E+00   2.835139E-02  -8.774639E-05    3
   1.860468E-07  -1.424271E-10  -1.975689E+04  -1.317674E+00                   4
CH3CCH3(S)      20180521C   3O   0H   6N   0S       100      1500     400      1
  -5.444135E-01   3.843447E-02  -2.949836E-05   1.272137E-08  -2.366569E-12    2
  -1.216676E+04   9.859708E+00   1.920578E-01   5.135812E-02  -1.468683E-04    3
   3.071376E-07  -2.355457E-10  -1.239806E+04   4.878766E+00                   4
CH2CHCH3(S)     20180521C   3O   0H   6N   0S       100      1500     500      1
  -1.199733E+00   4.311881E-02  -3.492471E-05   1.554546E-08  -2.914409E-12    2
  -1.456365E+04   9.153389E+00   1.773227E+00   2.252171E-02   8.764947E-07    3
   2.744736E-08  -5.271359E-11  -1.484193E+04  -3.216796E+00                   4
CHCH2CH3(S)     20180521C   3O   0H   6N   0S       100      1500     500      1
  -1.845930E+00   4.145168E-02  -3.253234E-05   1.410066E-08  -2.604030E-12    2
  -9.208382E+03   1.687052E+01   6.725816E-01   2.746982E-02  -2.495437E-05    3
   7.369425E-08  -8.054437E-11  -9.479676E+03   5.997390E+00                   4
CH2CH2CH2(S)    20180521C   3O   0H   6N   0S       100      1500     500      1
  -8.292840E-01   4.618906E-02  -3.877387E-05   1.763090E-08  -3.335419E-12    2
  -1.357953E+04   5.244622E-01   1.974356E+00   2.241715E-02   1.956448E-05    3
  -1.905068E-08  -1.800856E-11  -1.377577E+04  -1.054773E+01                   4
CH3CH2CH2O(S)   20180521C   3O   1H   7N   0S       100      1500     400      1
  -3.008318E+00   5.127342E-02  -3.998016E-05   1.710513E-08  -3.115334E-12    2
  -2.614066E+04   2.890326E+01   1.261728E+00   3.540231E-02  -6.982156E-05    3
   1.949730E-07  -1.800889E-10  -2.671828E+04   9.393304E+00                   4
CH3CH2OH(S)     20180521C   2O   1H   6N   0S       100      1500     400      1
  -1.303773E+00   3.766899E-02  -2.831801E-05   1.192972E-08  -2.163830E-12    2
  -3.244533E+04   2.162115E+01   1.688837E+00   3.282261E-02  -9.272993E-05    3
   2.361142E-07  -2.012247E-10  -3.290765E+04   7.273925E+00                   4
CH3OH(S)        20180521C   1O   1H   4N   0S       100      1500     400      1
   7.773528E-01   2.062171E-02  -1.361606E-05   5.017255E-09  -8.072235E-13    2
  -2.792378E+04   7.430886E+00   1.822646E+00   2.917324E-02  -1.074990E-04    3
   2.471136E-07  -1.937291E-10  -2.817749E+04   1.328051E+00                   4
CH3CH2CH2OH(S)  20180521C   3O   1H   8N   0S       100      1500     400      1
  -3.171679E+00   5.242917E-02  -3.939879E-05   1.644819E-08  -2.949213E-12    2
  -3.443043E+04   3.529524E+01   1.852632E+00   3.622416E-02  -8.957422E-05    3
   2.560399E-07  -2.313908E-10  -3.513888E+04   1.203903E+01                   4
! Included in WGS section below
!H2O(S)          20180521C   0O   1H   2N   0S       100      1500     600      1
!   5.281092E+00   4.482783E-03  -3.365685E-06   1.931583E-09  -4.705073E-13    2
!  -3.290088E+04  -2.390632E+01   2.156595E+00   2.748327E-02  -7.046204E-05    3
!   9.240871E-08  -4.726194E-11  -3.253909E+04  -1.064040E+01                   4
CH(S)           20180521C   1O   0H   1N   0S       100      1500     500      1
   1.232072E+00   1.223598E-02  -1.315688E-05   7.106070E-09  -1.502824E-12    2
  -4.916340E+03  -9.055927E+00   1.006747E+00  -8.926687E-03   1.288526E-04    3
  -3.062181E-07   2.300141E-10  -4.626697E+03  -5.387747E+00                   4
CH2OH(S)        20180521C   1O   1H   3N   0S       100      1500     500      1
   2.019006E+00   2.237464E-02  -1.917432E-05   8.917068E-09  -1.708101E-12    2
  -2.996384E+04  -1.019064E+01   1.681094E+00   2.720294E-02  -5.107526E-05    3
   9.151704E-08  -7.252411E-11  -2.991724E+04  -8.852345E+00                   4
CH2O(S)         20180521C   1O   1H   2N   0S       100      1500     700      1
   3.574674E+00   1.262352E-02  -7.482787E-06   1.889529E-09  -9.845541E-14    2
  -2.100455E+04  -1.787783E+01   1.810005E+00   1.795941E-02  -8.810942E-06    3
  -6.668349E-09   6.630808E-12  -2.063723E+04  -9.152539E+00                   4
CCH3(S)         20180521C   2O   0H   3N   0S       100      1500     500      1
   1.228808E+00   2.211803E-02  -1.819974E-05   8.228852E-09  -1.566597E-12    2
  -1.101552E+04  -5.288247E+00   5.616735E-01   3.022442E-02  -6.070848E-05    3
   1.036061E-07  -7.646309E-11  -1.094622E+04  -2.685668E+00                   4
CHCH2(S)        20180521C   2O   0H   3N   0S       100      1500     600      1
   1.507908E+00   2.332176E-02  -1.958389E-05   8.840288E-09  -1.654586E-12    2
  -3.780347E+03  -1.018908E+01   7.911766E-01   1.320084E-02   4.599124E-05    3
  -1.147411E-07   7.454768E-11  -3.431013E+03  -4.906267E+00                   4
CH3CHOH(S)      20180521C   2O   1H   5N   0S       100      1500     500      1
   8.860699E-01   3.565473E-02  -2.883484E-05   1.273928E-08  -2.354340E-12    2
  -3.751294E+04  -1.935754E+00   7.357221E-01   4.555679E-02  -1.053157E-04    3
   2.090643E-07  -1.658919E-10  -3.753429E+04  -2.017260E+00                   4
CH3CHO(S)       20180521C   2O   1H   4N   0S       100      1500     400      1
   1.668315E-01   2.743240E-02  -1.931468E-05   7.424056E-09  -1.235097E-12    2
  -2.694997E+04   1.394003E+01   2.274559E+00   2.072870E-02  -4.097093E-05    3
   1.092798E-07  -9.811066E-11  -2.724824E+04   4.172719E+00                   4
CH2CH2OH(S)     20180521C   2O   1H   5N   0S       100      1500     500      1
  -4.598818E-02   3.888964E-02  -3.295746E-05   1.512969E-08  -2.878126E-12    2
  -3.138759E+04   3.071224E+00   1.977858E+00   2.983433E-02  -4.617192E-05    3
   1.157917E-07  -1.112835E-10  -3.161230E+04  -5.827141E+00                   4
CH2CH2O(S)      20180521C   2O   1H   4N   0S       100      1500     500      1
   3.303550E-01   3.687118E-02  -3.218668E-05   1.487998E-08  -2.823769E-12    2
  -2.314295E+04  -4.351387E+00   1.376675E+00   2.916321E-02  -2.705068E-05    3
   5.529448E-08  -5.927411E-11  -2.319527E+04  -8.443768E+00                   4
CH2CCH3(S)      20180521C   3O   0H   5N   0S       100      1500     500      1
   2.275030E-01   3.760416E-02  -3.120963E-05   1.416991E-08  -2.694893E-12    2
  -8.550403E+03   2.832492E-02   6.398597E-01   3.778518E-02  -5.828003E-05    3
   1.090031E-07  -9.212549E-11  -8.574103E+03  -1.795051E+00                   4
CHCHCH3(S)      20180521C   3O   0H   5N   0S       100      1500     700      1
   2.057811E+00   2.910817E-02  -1.802711E-05   5.561066E-09  -6.635413E-13    2
  -9.893221E+03  -9.068173E+00   8.703869E-01   2.101805E-02   3.318990E-05    3
  -7.863609E-08   4.362552E-11  -9.370552E+03  -1.206248E+00                   4
CH2CHCH2(S)     20180521C   3O   0H   5N   0S       100      1500     600      1
   3.298000E-01   3.859646E-02  -3.184538E-05   1.428243E-08  -2.678757E-12    2
  -1.100451E+04  -3.123964E+00   2.383110E+00   7.642066E-03   8.965823E-05    3
  -1.725691E-07   9.869441E-11  -1.093553E+04  -9.388037E+00                   4
CH3CHCH2OH(S)   20180521C   3O   1H   7N   0S       100      1500     500      1
  -1.238697E+00   5.123381E-02  -4.049620E-05   1.735104E-08  -3.112559E-12    2
  -3.713662E+04   1.269037E+01   1.719581E+00   4.338867E-02  -9.205787E-05    3
   2.297513E-07  -2.062378E-10  -3.753594E+04  -1.002571E+00                   4
CH3CHCH2O(S)    20180521C   3O   1H   6N   0S       100      1500     500      1
  -8.623535E-01   4.921535E-02  -3.972541E-05   1.710133E-08  -3.058203E-12    2
  -2.889198E+04   5.267757E+00   1.118398E+00   4.271756E-02  -7.293664E-05    3
   1.692540E-07  -1.542284E-10  -2.911891E+04  -3.619198E+00                   4
CCH2CH3(S)      20180521C   3O   0H   5N   0S       100      1500     500      1
  -6.013012E-01   3.668596E-02  -2.898446E-05   1.255167E-08  -2.304973E-12    2
  -1.300353E+04   8.219430E+00   7.430802E-01   3.332007E-02  -5.576950E-05    3
   1.194000E-07  -1.034444E-10  -1.317632E+04   2.023993E+00                   4
CHCH2CH2(S)     20180521C   3O   0H   5N   0S       100      1500     500      1
  -7.125327E-01   4.336082E-02  -3.822545E-05   1.799334E-08  -3.484038E-12    2
  -8.148713E+03  -1.156076E+00   9.068562E-01   2.534372E-02   1.736611E-05    3
  -3.965910E-08   7.681147E-12  -8.191549E+03  -6.932612E+00                   4
CH3CH2CHOH(S)   20180521C   3O   1H   7N   0S       100      1500     500      1
  -9.440390E-01   5.022267E-02  -3.961956E-05   1.706209E-08  -3.092716E-12    2
  -3.950096E+04   1.157192E+01   9.171287E-01   4.865244E-02  -1.003767E-04    3
   2.248582E-07  -1.928732E-10  -3.976440E+04   2.692400E+00                   4
CH3CH2CHO(S)    20180521C   3O   1H   6N   0S       100      1500     400      1
  -1.401206E+00   4.368471E-02  -3.216282E-05   1.298594E-08  -2.262596E-12    2
  -2.899613E+04   2.295417E+01   2.807381E+00   2.506766E-02  -3.923697E-05    3
   1.339011E-07  -1.338436E-10  -2.954366E+04   4.013915E+00                   4
CH2CH2CH2OH(S)  20180521C   3O   1H   7N   0S       100      1500     500      1
  -1.876097E+00   5.345757E-02  -4.374218E-05   1.945250E-08  -3.616502E-12    2
  -3.337560E+04   1.657890E+01   2.159264E+00   3.292997E-02  -4.123294E-05    3
   1.315857E-07  -1.382648E-10  -3.384241E+04  -1.117480E+00                   4
CH2CH2CH2O(S)   20180521C   3O   1H   6N   0S       100      1500     500      1
  -1.499754E+00   5.143912E-02  -4.297139E-05   1.920279E-08  -3.562145E-12    2
  -2.513096E+04   9.156290E+00   1.558081E+00   3.225886E-02  -2.211171E-05    3
   7.108840E-08  -8.625541E-11  -2.542538E+04  -3.734108E+00                   4
C(S)            20180521C   1O   0H   0N   0S       100      1500     500      1
   1.142396E+00   8.162630E-03  -9.674284E-06   5.315214E-09  -1.113807E-12    2
   6.142320E+03  -7.778906E+00   8.010654E-01  -2.156252E-03   6.744828E-05    3
  -1.720087E-07   1.330561E-10   6.321529E+03  -4.846457E+00                   4
CHOH(S)         20180521C   1O   1H   2N   0S       100      1500     500      1
   2.287531E+00   1.861179E-02  -1.686387E-05   8.054063E-09  -1.560240E-12    2
  -2.909280E+04  -1.314023E+01  -2.005615E-01   3.795491E-02  -8.326594E-05    3
   1.220329E-07  -7.884512E-11  -2.879778E+04  -2.590553E+00                   4
! Included in WGS section below
!CHO(S)          20180521C   1O   1H   1N   0S       100      1500     900      1
!   4.096662E+00   8.143389E-03  -5.115816E-06   1.605858E-09  -2.055159E-13    2
!  -2.600969E+04  -1.756067E+01   2.772712E+00   1.433904E-02  -1.646126E-05    3
!   1.121942E-08  -3.361457E-12  -2.577459E+04  -1.135426E+01                   4
CCH2(S)         20180521C   2O   0H   2N   0S       100      1500     500      1
   1.077563E+00   2.104372E-02  -1.958446E-05   9.584457E-09  -1.903269E-12    2
  -1.160970E+03  -6.302733E+00   6.662784E-01   1.504626E-02   2.553502E-05    3
  -8.859170E-08   6.853141E-11  -9.918374E+02  -3.397834E+00                   4
CH3COH(S)       20180521C   2O   1H   4N   0S       100      1500     500      1
   1.042470E+00   3.148444E-02  -2.659453E-05   1.221956E-08  -2.338678E-12    2
  -3.459274E+04  -1.320142E+00   4.440746E-02   4.631897E-02  -1.073044E-04    3
   1.914874E-07  -1.407422E-10  -3.452115E+04   2.246954E+00                   4
CH3CO(S)        20180521C   2O   1H   3N   0S       100      1500     500      1
   2.599699E+00   2.381848E-02  -1.767265E-05   7.056952E-09  -1.194333E-12    2
  -3.541470E+04  -1.006981E+01   1.809395E+00   3.465394E-02  -7.433976E-05    3
   1.300762E-07  -9.460317E-11  -3.535122E+04  -7.159004E+00                   4
CHCH(S)         20180521C   2O   0H   2N   0S       100      1500     500      1
   4.083929E-01   2.344565E-02  -2.311612E-05   1.175583E-08  -2.390255E-12    2
  -2.908671E+02  -3.020563E+00   7.192478E-01   4.864498E-03   8.266607E-05    3
  -2.021438E-07   1.459558E-10  -1.162227E+02  -2.290024E+00                   4
CHCH2OH(S)      20180521C   2O   1H   4N   0S       100      1500     500      1
   7.076314E-02   3.606139E-02  -3.240904E-05   1.549213E-08  -3.026745E-12    2
  -2.595677E+04   1.390686E+00   9.103576E-01   3.276090E-02  -4.837029E-05    3
   9.518333E-08  -8.559375E-11  -2.602808E+04  -2.212020E+00                   4
CH2CHOH(S)      20180521C   2O   1H   4N   0S       100      1500     500      1
   1.011617E+00   3.671738E-02  -3.392477E-05   1.664798E-08  -3.317281E-12    2
  -3.367637E+04  -7.444885E+00   1.208551E+00   3.307656E-02  -3.085826E-05    3
   4.404336E-08  -4.439845E-11  -3.361880E+04  -7.731235E+00                   4
CHCH2O(S)       20180521C   2O   1H   3N   0S       100      1500     500      1
   4.471063E-01   3.404294E-02  -3.163826E-05   1.524242E-08  -2.972388E-12    2
  -1.771213E+04  -6.031925E+00   3.091745E-01   3.208979E-02  -2.924905E-05    3
   3.468606E-08  -3.358440E-11  -1.761105E+04  -4.828648E+00                   4
CH2CHO(S)       20180521C   2O   1H   3N   0S       100      1500     500      1
   9.986809E-01   2.837370E-02  -2.375426E-05   1.045648E-08  -1.894446E-12    2
  -2.541498E+04  -1.860234E+00   1.941018E+00   1.874479E-02   2.460050E-06    3
  -8.158399E-09  -7.568064E-12  -2.544848E+04  -5.314557E+00                   4
CHCCH3(S)       20180521C   3O   0H   4N   0S       100      1500     500      1
   1.788417E-01   3.355917E-02  -2.864532E-05   1.322659E-08  -2.536365E-12    2
  -5.270643E+03   2.125504E+00   4.559396E-01   3.137028E-02  -3.280001E-05    3
   4.821679E-08  -4.282037E-11  -5.257414E+03   1.188747E+00                   4
CH2CCH2(S)      20180521C   3O   0H   4N   0S       100      1500     600      1
   2.013837E+00   3.297497E-02  -2.747432E-05   1.223175E-08  -2.250805E-12    2
  -5.159398E+03  -1.478049E+01   1.037858E+00   2.492581E-02   2.746191E-05    3
  -8.716803E-08   5.561020E-11  -4.759672E+03  -8.314162E+00                   4
CH3CCH2OH(S)    20180521C   3O   1H   6N   0S       100      1500     400      1
  -5.407825E-01   4.799853E-02  -4.075821E-05   1.883302E-08  -3.623515E-12    2
  -3.089241E+04   8.267266E+00   5.853395E-01   6.020059E-02  -1.680542E-04    3
   3.508856E-07  -2.728016E-10  -3.117724E+04   1.461950E+00                   4
CH3CCH2O(S)     20180521C   3O   1H   5N   0S       100      1500     500      1
   2.175551E-01   4.415646E-02  -3.716746E-05   1.671317E-08  -3.118498E-12    2
  -2.269191E+04  -8.858587E-01   4.586625E-02   5.859556E-02  -1.447151E-04    3
   2.850467E-07  -2.223606E-10  -2.275225E+04  -1.349877E+00                   4
CCHCH3(S)       20180521C   3O   0H   4N   0S       100      1500     500      1
  -1.151458E-01   3.338789E-02  -2.712319E-05   1.180581E-08  -2.137702E-12    2
  -6.910006E+03   3.316411E+00   4.080016E-01   2.860060E-02  -2.035094E-05    3
   2.536786E-08  -2.642290E-11  -6.915471E+03   1.426736E+00                   4
CHCHCH2(S)      20180521C   3O   0H   4N   0S       100      1500     600      1
   8.283638E-01   3.519504E-02  -2.996884E-05   1.354959E-08  -2.522628E-12    2
  -5.770712E+03  -7.951593E+00   1.046263E+00   1.356012E-02   7.886668E-05    3
  -1.764141E-07   1.102430E-10  -5.442230E+03  -5.931138E+00                   4
CH3CHCHOH(S)    20180521C   3O   1H   6N   0S       100      1500     500      1
  -1.810911E-01   4.906155E-02  -4.146351E-05   1.886933E-08  -3.551714E-12    2
  -3.942540E+04   2.174259E+00   9.502743E-01   4.663091E-02  -7.674421E-05    3
   1.580029E-07  -1.393528E-10  -3.954243E+04  -2.906665E+00                   4
CH3CHCHO(S)     20180521C   3O   1H   5N   0S       100      1500     500      1
   1.747583E-01   4.034620E-02  -3.145635E-05   1.312751E-08  -2.294744E-12    2
  -2.888751E+04   6.623193E+00   1.265813E+00   4.317309E-02  -9.523858E-05    3
   2.043319E-07  -1.696466E-10  -2.907042E+04   1.050072E+00                   4
CH2CHCH2OH(S)   20180521C   3O   1H   6N   0S       100      1500     500      1
  -1.113149E+00   5.229646E-02  -4.558613E-05   2.125975E-08  -4.075500E-12    2
  -3.330005E+04   7.181237E+00   2.192410E+00   3.090844E-02  -1.760045E-05    3
   6.473036E-08  -8.474427E-11  -3.362044E+04  -6.716545E+00                   4
CH2CHCH2O(S)    20180521C   3O   1H   5N   0S       100      1500     500      1
  -7.368061E-01   5.027800E-02  -4.481535E-05   2.101003E-08  -4.021144E-12    2
  -2.505541E+04  -2.413739E-01   1.591227E+00   3.023733E-02   1.520786E-06    3
   4.233092E-09  -3.273493E-11  -2.520341E+04  -9.333173E+00                   4
CCH2CH2(S)      20180521C   3O   0H   4N   0S       100      1500     600      1
   8.810740E-01   3.443955E-02  -2.874743E-05   1.275078E-08  -2.338861E-12    2
  -5.821138E+03  -7.696005E+00   1.189005E+00   2.294945E-02   2.047993E-05    3
  -6.098447E-08   3.462945E-11  -5.667957E+03  -7.521515E+00                   4
CH3CH2COH(S)    20180521C   3O   1H   6N   0S       100      1500     500      1
  -7.876390E-01   4.605237E-02  -3.737925E-05   1.654238E-08  -3.077054E-12    2
  -3.658075E+04   1.218753E+01   2.258141E-01   4.941462E-02  -1.023654E-04    3
   2.072813E-07  -1.677235E-10  -3.675126E+04   6.956614E+00                   4
CH3CH2CO(S)     20180521C   3O   1H   5N   0S       100      1500     500      1
   1.290015E+00   3.891939E-02  -2.873861E-05   1.143601E-08  -1.936613E-12    2
  -3.750133E+04  -2.260388E+00   2.369146E+00   3.851658E-02  -6.975282E-05    3
   1.478117E-07  -1.246748E-10  -3.764537E+04  -7.403121E+00                   4
CHCH2CH(S)      20180521C   3O   0H   4N   0S       100      1500     600      1
   2.396744E-01   3.720981E-02  -3.280477E-05   1.526479E-08  -2.915005E-12    2
  -2.883735E+03  -6.865834E+00  -7.102973E-02   2.670828E-02   2.444457E-05    3
  -8.280367E-08   5.252208E-11  -2.613730E+03  -3.617480E+00                   4
CHCH2CH2OH(S)   20180521C   3O   1H   6N   0S       100      1500     500      1
  -1.759346E+00   5.062933E-02  -4.319376E-05   1.981495E-08  -3.765121E-12    2
  -2.794478E+04   1.489836E+01   1.091764E+00   3.585655E-02  -4.343131E-05    3
   1.109772E-07  -1.125750E-10  -2.825819E+04   2.497640E+00                   4
CH2CH2CHOH(S)   20180521C   3O   1H   6N   0S       100      1500     500      1
   1.893582E-01   5.213180E-02  -4.531266E-05   2.095477E-08  -3.972724E-12    2
  -3.844129E+04  -6.454668E+00   1.151403E+00   4.652635E-02  -5.805623E-05    3
   1.115049E-07  -1.046477E-10  -3.847627E+04  -1.023760E+01                   4
CHCH2CH2O(S)    20180521C   3O   1H   5N   0S       100      1500     500      1
  -1.383003E+00   4.861087E-02  -4.242298E-05   1.956523E-08  -3.710764E-12    2
  -1.970015E+04   7.475752E+00   4.905812E-01   3.518544E-02  -2.431008E-05    3
   5.047998E-08  -6.056570E-11  -1.984116E+04  -1.189872E-01                   4
CH2CH2CHO(S)    20180521C   3O   1H   5N   0S       100      1500     500      1
   4.358971E-02   4.413422E-02  -3.560400E-05   1.538806E-08  -2.783991E-12    2
  -2.797586E+04   3.505876E+00   3.100469E+00   2.194735E-02   8.636383E-06    3
   8.559707E-09  -3.750394E-11  -2.825059E+04  -9.101031E+00                   4
COH(S)          20180521C   1O   1H   1N   0S       100      1500     500      1
   3.318811E+00   1.354243E-02  -1.415874E-05   7.421046E-09  -1.517892E-12    2
  -3.171123E+04  -1.673915E+01   3.181235E-01   3.790522E-02  -9.542429E-05    3
   1.369330E-07  -8.237103E-11  -3.138847E+04  -4.247256E+00                   4
! Included in WGS section below
!CO(S)           20180521C   1O   1H   0N   0S       100      1500     500      1
!   4.090877E+00   4.955653E-03  -4.117473E-06   1.830750E-09  -3.449352E-13    2
!  -3.115372E+04  -1.848554E+01   1.090660E+00   2.589286E-02  -5.489720E-05    3
!   4.816333E-08  -9.385373E-12  -3.082239E+04  -5.750773E+00                   4
CCH(S)          20180521C   2O   0H   1N   0S       100      1500     700      1
   3.632860E+00   9.582453E-03  -7.159801E-06   2.732110E-09  -4.242207E-13    2
   1.111563E+04  -1.909898E+01  -6.752379E-01   3.451677E-02  -6.432575E-05    3
   6.385349E-08  -2.582716E-11   1.174345E+04   2.119545E-01                   4
CCH2OH(S)       20180521C   2O   1H   3N   0S       100      1500     500      1
   1.315392E+00   3.129567E-02  -2.886116E-05   1.394313E-08  -2.727688E-12    2
  -2.975192E+04  -7.260399E+00   9.808562E-01   3.861115E-02  -7.918542E-05    3
   1.408891E-07  -1.084938E-10  -2.972473E+04  -6.185417E+00                   4
CH2COH(S)       20180521C   2O   1H   3N   0S       100      1500     700      1
   3.939696E+00   2.272480E-02  -1.718044E-05   6.875145E-09  -1.141426E-12    2
  -3.143859E+04  -2.156361E+01   4.872501E-01   3.270178E-02  -1.723044E-05    3
  -1.475752E-08   1.515624E-11  -3.070985E+04  -4.422925E+00                   4
CCH2O(S)        20180521C   2O   1H   2N   0S       100      1500     500      1
   1.284818E+00   2.813773E-02  -2.659195E-05   1.281626E-08  -2.482077E-12    2
  -1.523538E+04  -8.929523E+00   4.730156E-01   3.174471E-02  -3.821402E-05    3
   4.245971E-08  -3.114777E-11  -1.508012E+04  -5.022468E+00                   4
CH2CO(S)        20180521C   2O   1H   2N   0S       100      1500     600      1
   2.869296E+00   2.150189E-02  -1.804636E-05   7.943030E-09  -1.440817E-12    2
  -2.954779E+04  -1.452651E+01   1.690058E+00   2.147086E-02   2.703328E-06    3
  -4.022082E-08   3.043692E-11  -2.926389E+04  -8.264382E+00                   4
CHCHOH(S)       20180521C   2O   1H   3N   0S       100      1500     700      1
   4.060892E+00   2.348095E-02  -1.804025E-05   7.243077E-09  -1.188873E-12    2
  -2.896638E+04  -2.465640E+01   1.193398E-01   3.463162E-02  -1.546092E-05    3
  -2.400590E-08   2.209563E-11  -2.814108E+04  -5.097239E+00                   4
CHCHO(S)        20180521C   2O   1H   2N   0S       100      1500     600      1
   1.658039E+00   2.247691E-02  -1.895783E-05   8.266996E-09  -1.470513E-12    2
  -1.939233E+04  -4.105915E+00   1.181369E+00   1.862050E-02   7.819568E-06    3
  -4.071668E-08   2.731903E-11  -1.920081E+04  -9.687343E-01                   4
CCCH3(S)        20180521C   3O   0H   3N   0S       100      1500     300      1
   1.808013E+00   2.614615E-02  -2.204729E-05   1.009339E-08  -1.929978E-12    2
   6.432832E+03  -6.315596E+00  -6.321551E-01   5.412460E-02  -1.250410E-04    3
   1.323317E-07  -1.395966E-23   6.584325E+03   2.739722E+00                   4
CHCCH2(S)       20180521C   3O   0H   3N   0S       100      1500     600      1
   1.862629E+00   2.935936E-02  -2.555045E-05   1.170054E-08  -2.189100E-12    2
  -1.862070E+03  -1.219738E+01   7.191835E-01   2.083241E-02   3.934748E-05    3
  -1.154450E-07   7.774764E-11  -1.437463E+03  -4.883770E+00                   4
CH3CCHOH(S)     20180521C   3O   1H   5N   0S       100      1500     500      1
   1.246145E+00   4.354690E-02  -3.774843E-05   1.749379E-08  -3.332198E-12    2
  -3.341216E+04  -6.950805E+00  -1.830932E-01   6.189438E-02  -1.359007E-04    3
   2.395586E-07  -1.787647E-10  -3.327461E+04  -1.484920E+00                   4
CH3CCHO(S)      20180521C   3O   1H   4N   0S       100      1500     500      1
   1.221679E+00   3.534858E-02  -2.889216E-05   1.271444E-08  -2.347028E-12    2
  -2.432867E+04  -2.699171E-01   1.798681E-01   5.786863E-02  -1.600566E-04    3
   3.056352E-07  -2.270223E-10  -2.433025E+04   2.645580E+00                   4
CH2CCH2OH(S)    20180521C   3O   1H   5N   0S       100      1500     500      1
   3.140871E-01   4.678180E-02  -4.187105E-05   1.988420E-08  -3.855984E-12    2
  -2.728680E+04  -1.943827E+00   1.059042E+00   4.617191E-02  -7.675697E-05    3
   1.462860E-07  -1.241562E-10  -2.735262E+04  -5.294801E+00                   4
CH2CCH2O(S)     20180521C   3O   1H   4N   0S       100      1500     500      1
   6.904303E-01   4.476335E-02  -4.110027E-05   1.963449E-08  -3.801628E-12    2
  -1.904217E+04  -9.366438E+00   4.578592E-01   4.550080E-02  -5.763574E-05    3
   8.578878E-08  -7.214683E-11  -1.893559E+04  -7.911428E+00                   4
CCHCH2(S)       20180521C   3O   0H   3N   0S       100      1500     500      1
  -3.965155E-01   3.331104E-02  -3.071470E-05   1.483735E-08  -2.909389E-12    2
   3.198469E+03   3.560767E+00   9.741733E-01   9.925042E-03   7.595665E-05    3
  -1.775852E-07   1.204073E-10   3.227608E+03  -5.076615E-01                   4