THERMO ALL
300      1500.      500
! ------------------------------------------------------------------------------
!  Surface
! ------------------------------------------------------------------------------
PT(S)                   PT  1               S      100.     1500.     500      1
          0E+00          0E+00          0E+00          0E+00          0E+00    2
          0E+00          0E+00          0E+00          0E+00          0E+00    3
          0E+00          0E+00          0E+00          0E+00                   4
PT(B)                   PT  1               S      100.     1500.     500      1
          0E+00          0E+00          0E+00          0E+00          0E+00    2
          0E+00          0E+00          0E+00          0E+00          0E+00    3
          0E+00          0E+00          0E+00          0E+00                   4
! ------------------------------------------------------------------------------
!  General Gas Species
! ------------------------------------------------------------------------------
HE                L10/90HE  1    0    0    0G       200      6000    1000      1
   2.500000E+00   0.000000E+00   0.000000E+00   0.000000E+00   0.000000E+00    2
  -7.453750E+02   9.287240E-01   2.500000E+00   0.000000E+00   0.000000E+00    3
   0.000000E+00   0.000000E+00  -7.453750E+02   9.287240E-01                   4
! CurranPentane
N2                      N   2               G   100.000  5000.000 1476.50      1
 2.83317744E+00 1.60016503E-03-6.09980897E-07 1.06349431E-10-6.90914308E-15    2
-8.72927385E+02 6.54633959E+00 3.54136017E+00-6.93374234E-04 2.10102428E-06    3
-1.28972949E-09 2.58598645E-13-1.04117820E+03 2.99222674E+00                   4
! ------------------------------------------------------------------------------
!  Surface Species va GA
! ------------------------------------------------------------------------------
300      1500       500
CH3CH2CH3(S)    20180510C   3O   0H   8N   0S       100      1500     400      1
  -1.269215E-01   4.812301E-02  -3.300865E-05   1.251314E-08  -2.072059E-12    2
  -2.298538E+04   3.775366E+00   4.201574E+00   4.065496E-02  -1.216814E-04    3
   3.243512E-07  -2.798563E-10  -2.365451E+04  -1.695235E+01                   4
! Included in WGS section below
!O(S)            20180510C   0O   1H   0N   0S       100      1500     600      1
!   2.898383E+00   2.816656E-03  -2.997761E-06   1.490825E-09  -2.856030E-13    2
!  -1.685116E+04  -1.575629E+01  -9.640670E-01   3.011296E-02  -7.792957E-05    3
!   9.536322E-08  -4.516459E-11  -1.639544E+04   7.567469E-01                   4
CH2CH3(S)       20180510C   2O   0H   5N   0S       100      1500     500      1
   6.444035E-01   3.097855E-02  -2.349551E-05   9.990192E-09  -1.829376E-12    2
  -1.446844E+04  -3.449762E+00   2.019620E+00   2.681028E-02  -4.808326E-05    3
   1.176095E-07  -1.073743E-10  -1.463242E+04  -9.673588E+00                   4
CH3(S)          20180510C   1O   0H   3N   0S       100      1500     600      1
   2.469726E+00   1.296640E-02  -8.237423E-06   3.060032E-09  -5.254884E-13    2
  -7.572226E+03  -1.198822E+01   2.827973E+00   4.609387E-03   2.775935E-05    3
  -5.460271E-08   3.151364E-11  -7.504680E+03  -1.263146E+01                   4
CH3CHCH3(S)     20180510C   3O   0H   7N   0S       100      1500     400      1
  -6.793294E-01   4.773827E-02  -3.760629E-05   1.657083E-08  -3.126980E-12    2
  -2.141676E+04   3.159093E+00   1.984484E+00   4.658775E-02  -1.212511E-04    3
   2.857288E-07  -2.393200E-10  -2.184470E+04  -9.879652E+00                   4
CH2CH2CH3(S)    20180510C   3O   0H   7N   0S       100      1500     400      1
  -1.148816E+00   4.936282E-02  -3.909378E-05   1.713445E-08  -3.194312E-12    2
  -1.833645E+04   5.796077E+00   3.056230E+00   3.055555E-02  -4.889724E-05    3
   1.537174E-07  -1.537763E-10  -1.887049E+04  -1.304117E+01                   4
! Included in WGS section below
!OH(S)           20180510C   0O   1H   1N   0S       100      1500     700      1
!   4.326686E+00   3.352022E-03  -2.989346E-06   1.642213E-09  -3.684803E-13    2
!  -2.074052E+04  -1.992929E+01   2.640777E+00   1.063366E-02  -1.307879E-05    3
!   5.164737E-09   9.824853E-13  -2.044768E+04  -1.199383E+01                   4
CH2(S)          20180510C   1O   0H   2N   0S       100      1500     500      1
   1.502742E+00   1.427995E-02  -1.308829E-05   6.505342E-09  -1.321074E-12    2
  -2.208843E+03  -9.990990E+00   9.655718E-01   2.027475E-03   7.655694E-05    3
  -1.919656E-07   1.436544E-10  -1.948905E+03  -5.727725E+00                   4
CHCH3(S)        20180510C   2O   0H   4N   0S       100      1500     500      1
   9.867504E-01   2.739439E-02  -2.170423E-05   9.434917E-09  -1.733549E-12    2
  -9.126668E+03  -6.563266E+00   9.446733E-01   3.091457E-02  -5.655443E-05    3
   1.108021E-07  -9.255525E-11  -9.109787E+03  -6.510131E+00                   4
CH2CH2(S)       20180510C   2O   0H   4N   0S       100      1500     700      1
   3.474609E+00   1.791318E-02  -8.440400E-06   1.280064E-09   1.206123E-13    2
  -9.991441E+03  -1.836278E+01   2.174222E+00   9.207434E-03   4.877833E-05    3
  -9.586805E-08   5.292792E-11  -9.434020E+03  -9.830894E+00                   4
CH3CH2O(S)      20180510C   2O   1H   5N   0S       100      1500     400      1
   3.962830E-01   3.909632E-02  -3.153452E-05   1.389273E-08  -2.584685E-12    2
  -2.733004E+04  -1.536994E+00   2.312251E+00   3.937726E-02  -9.842628E-05    3
   2.206309E-07  -1.805888E-10  -2.765045E+04  -1.104867E+01                   4
CH3O(S)         20180510C   1O   1H   3N   0S       100      1500     400      1
   1.910162E+00   2.089888E-02  -1.616733E-05   6.913240E-09  -1.267574E-12    2
  -2.078164E+04  -9.061735E+00   1.576349E+00   3.603854E-02  -1.134229E-04    3
   2.267280E-07  -1.664747E-10  -2.085298E+04  -8.969183E+00                   4
CH3CCH3(S)      20180510C   3O   0H   6N   0S       100      1500     400      1
   8.479768E-01   4.003260E-02  -3.067327E-05   1.305592E-08  -2.384708E-12    2
  -1.499358E+04  -4.797451E+00   7.124001E-01   6.421657E-02  -2.005259E-04    3
   4.108096E-07  -3.077688E-10  -1.517074E+04  -6.601482E+00                   4
CH2CHCH3(S)     20180510C   3O   0H   6N   0S       100      1500     500      1
  -3.194073E-01   4.380480E-02  -3.528018E-05   1.558792E-08  -2.903517E-12    2
  -1.639493E+04   3.759989E-01   2.170055E+00   2.859627E-02  -2.336773E-05    3
   7.417264E-08  -8.588592E-11  -1.663169E+04  -1.012425E+01                   4
CHCH2CH3(S)     20180510C   3O   0H   6N   0S       100      1500     400      1
  -8.280703E-01   4.584573E-02  -3.741458E-05   1.665810E-08  -3.118432E-12    2
  -1.298727E+04   2.796095E+00   1.984782E+00   3.460634E-02  -5.712105E-05    3
   1.465700E-07  -1.389943E-10  -1.334602E+04  -9.886583E+00                   4
CH2CH2CH2(S)    20180510C   3O   0H   6N   0S       100      1500     500      1
  -1.236841E+00   4.654510E-02  -3.887332E-05   1.755691E-08  -3.301300E-12    2
  -1.384778E+04   3.417040E+00   2.012146E+00   1.857708E-02   3.591095E-05    3
  -4.864009E-08   1.715990E-12  -1.408931E+04  -9.458351E+00                   4
CH3CH2CH2O(S)   20180510C   3O   1H   7N   0S       100      1500     400      1
  -8.616854E-01   5.509878E-02  -4.343538E-05   1.857712E-08  -3.355275E-12    2
  -3.128261E+04   5.210709E+00   3.400987E+00   4.223827E-02  -9.427306E-05    3
   2.459081E-07  -2.195123E-10  -3.188653E+04  -1.458404E+01                   4
CH3CH2OH(S)     20180510C   2O   1H   6N   0S       100      1500     400      1
   1.251323E+00   3.992609E-02  -3.027608E-05   1.271889E-08  -2.282288E-12    2
  -3.664866E+04  -3.412925E+00   3.410060E+00   4.458805E-02  -1.342441E-04    3
   3.076831E-07  -2.470615E-10  -3.705359E+04  -1.462025E+01                   4
CH3OH(S)        20180510C   1O   1H   4N   0S       100      1500     400      1
   2.765201E+00   2.172865E-02  -1.490889E-05   5.739399E-09  -9.651773E-13    2
  -3.010027E+04  -1.093767E+01   2.674158E+00   4.124933E-02  -1.492407E-04    3
   3.137802E-07  -2.329475E-10  -3.025612E+04  -1.254076E+01                   4
CH3CH2CH2OH(S)  20180510C   3O   1H   8N   0S       100      1500     400      1
  -6.645603E-03   5.592855E-02  -4.217695E-05   1.740328E-08  -3.052879E-12    2
  -4.060124E+04   3.334777E+00   4.498796E+00   4.744906E-02  -1.300909E-04    3
   3.329603E-07  -2.859851E-10  -4.128968E+04  -1.815562E+01                   4
! Included in WGS section below
!H2O(S)          20180510C   0O   1H   2N   0S       100      1500     600      1
!   5.281092E+00   4.482783E-03  -3.365685E-06   1.931583E-09  -4.705073E-13    2
!  -3.290088E+04  -2.390632E+01   2.156595E+00   2.748327E-02  -7.046204E-05    3
!   9.240871E-08  -4.726194E-11  -3.253909E+04  -1.064040E+01                   4
CH(S)           20180510C   1O   0H   1N   0S       100      1500     500      1
   1.245549E+00   1.218770E-02  -1.308619E-05   7.061311E-09  -1.492453E-12    2
  -4.920290E+03  -9.124616E+00   1.021925E+00  -9.259722E-03   1.312445E-04    3
  -3.130167E-07   2.364983E-10  -4.627550E+03  -5.434518E+00                   4
CH2OH(S)        20180510C   1O   1H   3N   0S       100      1500     500      1
   2.055777E+00   2.230367E-02  -1.925264E-05   9.069603E-09  -1.767147E-12    2
  -3.000474E+04  -1.033425E+01   1.616415E+00   2.806135E-02  -5.489653E-05    3
   9.795407E-08  -7.599217E-11  -2.994452E+04  -8.570891E+00                   4
CH2O(S)         20180510C   1O   1H   2N   0S       100      1500     500      1
   2.172488E+00   1.838944E-02  -1.617553E-05   7.586378E-09  -1.467347E-12    2
  -2.070055E+04  -1.120076E+01   1.593600E+00   2.171907E-02  -3.035349E-05    3
   4.344807E-08  -3.385370E-11  -2.059448E+04  -8.483966E+00                   4
CCH3(S)         20180510C   2O   0H   3N   0S       100      1500     500      1
   1.538299E+00   2.252757E-02  -1.838159E-05   8.194404E-09  -1.532354E-12    2
  -1.162432E+04  -8.781452E+00   4.845315E-01   3.464797E-02  -7.836208E-05    3
   1.379842E-07  -1.012930E-10  -1.151776E+04  -4.644487E+00                   4
CHCH2(S)        20180510C   2O   0H   3N   0S       100      1500     600      1
   1.702395E+00   2.288180E-02  -1.869013E-05   8.169067E-09  -1.481787E-12    2
  -4.043214E+03  -1.164807E+01   8.962776E-01   1.279133E-02   4.834912E-05    3
  -1.189986E-07   7.717936E-11  -3.673190E+03  -5.896730E+00                   4
CH3CHOH(S)      20180510C   2O   1H   5N   0S       100      1500     500      1
   1.196221E+00   3.759250E-02  -3.144029E-05   1.440224E-08  -2.756484E-12    2
  -3.856643E+04  -6.756158E+00   9.677873E-01   4.983820E-02  -1.206306E-04    3
   2.361991E-07  -1.838998E-10  -3.860010E+04  -6.721770E+00                   4
CH3CHO(S)       20180510C   2O   1H   4N   0S       100      1500     400      1
   2.208920E+00   3.152401E-02  -2.374076E-05   9.780026E-09  -1.722381E-12    2
  -3.289576E+04  -7.993503E+00   3.047351E+00   4.221611E-02  -1.264050E-04    3
   2.680149E-07  -2.054732E-10  -3.313175E+04  -1.328564E+01                   4
CH2CH2OH(S)     20180510C   2O   1H   5N   0S       100      1500     500      1
   8.636424E-01   3.835681E-02  -3.199896E-05   1.443716E-08  -2.702951E-12    2
  -3.210172E+04  -4.357888E+00   2.320795E+00   3.353519E-02  -5.608467E-05    3
   1.252559E-07  -1.127391E-10  -3.226784E+04  -1.089013E+01                   4
CH2CH2O(S)      20180510C   2O   1H   4N   0S       100      1500     500      1
   2.510937E-01   3.652764E-02  -3.170120E-05   1.457304E-08  -2.754032E-12    2
  -2.283173E+04  -3.647123E+00   1.223252E+00   2.826453E-02  -1.942656E-05    3
   3.448216E-08  -4.112044E-11  -2.286765E+04  -7.321551E+00                   4
CH2CCH3(S)      20180510C   3O   0H   5N   0S       100      1500     500      1
   8.442365E-01   3.805886E-02  -3.122699E-05   1.396714E-08  -2.620849E-12    2
  -9.732510E+03  -6.292765E+00   7.384871E-01   4.504091E-02  -9.151660E-05    3
   1.784355E-07  -1.445636E-10  -9.723000E+03  -6.225391E+00                   4
CHCHCH3(S)      20180510C   3O   0H   5N   0S       100      1500     500      1
  -3.770984E-01   4.233638E-02  -3.662091E-05   1.710001E-08  -3.310246E-12    2
  -1.080682E+04  -1.276288E+00   9.822698E-01   3.058374E-02  -1.418728E-05    3
   2.749403E-08  -4.156153E-11  -1.087549E+04  -6.487519E+00                   4
CH2CHCH2(S)     20180510C   3O   0H   5N   0S       100      1500     700      1
   3.364675E+00   2.749150E-02  -1.563391E-05   4.054043E-09  -3.149604E-13    2
  -1.209791E+04  -1.869851E+01   2.333048E+00   1.079081E-02   7.505775E-05    3
  -1.439550E-07   7.902829E-11  -1.143598E+04  -1.030942E+01                   4
CH3CHCH2OH(S)   20180510C   3O   1H   7N   0S       100      1500     400      1
  -5.590535E-01   5.554382E-02  -4.677459E-05   2.146096E-08  -4.107800E-12    2
  -3.903261E+04   2.718504E+00   2.281705E+00   5.338185E-02  -1.296606E-04    3
   2.943379E-07  -2.454487E-10  -3.947986E+04  -1.108292E+01                   4
CH3CHCH2O(S)    20180510C   3O   1H   6N   0S       100      1500     500      1
  -7.312858E-01   5.164669E-02  -4.327617E-05   1.947269E-08  -3.646698E-12    2
  -2.981788E+04   1.420207E+00   1.264651E+00   4.680199E-02  -8.616013E-05    3
   1.905632E-07  -1.674693E-10  -3.007282E+04  -7.769958E+00                   4
CCH2CH3(S)      20180510C   3O   0H   5N   0S       100      1500     500      1
   9.858993E-02   3.925529E-02  -3.141966E-05   1.364158E-08  -2.488488E-12    2
  -1.553695E+04  -1.149692E+00   1.614592E+00   3.676493E-02  -6.963749E-05    3
   1.518250E-07  -1.303171E-10  -1.575143E+04  -8.308960E+00                   4
CHCH2CH2(S)     20180510C   3O   0H   5N   0S       100      1500     700      1
   1.884950E+00   3.231669E-02  -2.197630E-05   7.679220E-09  -1.091026E-12    2
  -9.084124E+03  -1.321665E+01   1.139940E+00   1.914682E-02   4.840901E-05    3
  -1.062496E-07   5.951993E-11  -8.582188E+03  -6.973833E+00                   4
CH3CH2CHOH(S)   20180510C   3O   1H   7N   0S       100      1500     400      1
  -6.147309E-01   5.607048E-02  -4.718935E-05   2.164972E-08  -4.146941E-12    2
  -4.243322E+04   2.566934E+00   2.020309E+00   5.322973E-02  -1.186941E-04    3
   2.634484E-07  -2.202832E-10  -4.283940E+04  -1.013923E+01                   4
CH3CH2CHO(S)    20180510C   3O   1H   6N   0S       100      1500     400      1
   6.409004E-01   4.811584E-02  -3.701637E-05   1.551668E-08  -2.769467E-12    2
  -3.392190E+04  -1.998163E-01   4.530139E+00   3.515540E-02  -7.326731E-05    3
   1.960522E-07  -1.769563E-10  -3.446610E+04  -1.815443E+01                   4
CH2CH2CH2OH(S)  20180510C   3O   1H   7N   0S       100      1500     500      1
  -5.760670E-01   5.508453E-02  -4.503703E-05   1.988433E-08  -3.659086E-12    2
  -3.601436E+04   3.273872E+00   3.450855E+00   3.565215E-02  -4.736008E-05    3
   1.390967E-07  -1.417633E-10  -3.650152E+04  -1.455460E+01                   4
CH2CH2CH2O(S)   20180510C   3O   1H   6N   0S       100      1500     500      1
  -1.188616E+00   5.325537E-02  -4.473926E-05   2.002021E-08  -3.710167E-12    2
  -2.674436E+04   3.984637E+00   2.353312E+00   3.038149E-02  -1.070197E-05    3
   4.832291E-08  -7.014460E-11  -2.710133E+04  -1.098602E+01                   4
C(S)            20180510C   1O   0H   0N   0S       100      1500     500      1
   1.194962E+00   7.950300E-03  -9.386139E-06   5.151364E-09  -1.080460E-12    2
   6.133298E+03  -8.028613E+00   8.008850E-01  -2.153287E-03   6.743173E-05    3
  -1.719716E-07   1.330280E-10   6.321909E+03  -4.845338E+00                   4
CHOH(S)         20180510C   1O   1H   2N   0S       100      1500     500      1
   2.183381E+00   1.915456E-02  -1.778191E-05   8.699332E-09  -1.721665E-12    2
  -2.908046E+04  -1.267483E+01  -1.611099E-01   3.715551E-02  -7.805561E-05    3
   1.087644E-07  -6.725286E-11  -2.880088E+04  -2.716458E+00                   4
! Included in WGS section below
!CHO(S)          20180510C   1O   1H   1N   0S       100      1500     900      1
!   6.362298E+00   2.769658E-04   5.009782E-06  -4.121362E-09   9.948448E-13    2
!  -2.652555E+04  -2.879851E+01   2.772713E+00   1.433902E-02  -1.646117E-05    3
!   1.121926E-08  -3.361364E-12  -2.577440E+04  -1.135409E+01                   4
CCH2(S)         20180510C   2O   0H   2N   0S       100      1500     600      1
   2.315451E+00   1.701141E-02  -1.335732E-05   5.461493E-09  -9.095999E-13    2
  -1.652894E+03  -1.354288E+01   6.553468E-01   1.794199E-02   1.118461E-05    3
  -5.541986E-08   4.088850E-11  -1.268843E+03  -4.870007E+00                   4
CH3COH(S)       20180510C   2O   1H   4N   0S       100      1500     500      1
   2.237131E+00   3.101253E-02  -2.504061E-05   1.083563E-08  -1.943317E-12    2
  -3.630509E+04  -1.197648E+01   3.877303E-01   5.393429E-02  -1.385362E-04    3
   2.528055E-07  -1.856841E-10  -3.614903E+04  -4.968230E+00                   4
CH3CO(S)        20180510C   2O   1H   3N   0S       100      1500     500      1
   2.515603E+00   2.686747E-02  -2.183756E-05   9.731287E-09  -1.833135E-12    2
  -3.716218E+04  -1.166789E+01   1.284571E+00   4.703843E-02  -1.279736E-04    3
   2.351363E-07  -1.697704E-10  -3.711805E+04  -7.603849E+00                   4
CHCH(S)         20180510C   2O   0H   2N   0S       100      1500     500      1
   7.466343E-01   2.372508E-02  -2.332560E-05   1.180321E-08  -2.384299E-12    2
  -1.042803E+03  -6.448870E+00   9.655235E-01   6.010296E-03   7.822743E-05    3
  -1.920201E-07   1.372662E-10  -8.573528E+02  -5.335319E+00                   4
CHCH2OH(S)      20180510C   2O   1H   4N   0S       100      1500     500      1
   1.205989E+00   3.477265E-02  -3.020768E-05   1.388189E-08  -2.607124E-12    2
  -2.675995E+04  -7.471393E+00   1.245849E+00   3.763948E-02  -6.455583E-05    3
   1.184485E-07  -9.792014E-11  -2.674520E+04  -7.726673E+00                   4
CH2CHOH(S)      20180510C   2O   1H   4N   0S       100      1500     500      1
   1.214790E+00   3.529970E-02  -3.164999E-05   1.510031E-08  -2.937960E-12    2
  -3.350677E+04  -7.997727E+00   1.076823E+00   3.308672E-02  -2.918147E-05    3
   3.668126E-08  -3.606260E-11  -3.339420E+04  -6.724027E+00                   4
CHCH2O(S)       20180510C   2O   1H   3N   0S       100      1500     500      1
   5.934406E-01   3.294349E-02  -2.990992E-05   1.401777E-08  -2.658205E-12    2
  -1.748996E+04  -6.760627E+00   1.483057E-01   3.236882E-02  -2.789772E-05    3
   2.767476E-08  -2.630143E-11  -1.734502E+04  -4.158094E+00                   4
CH2CHO(S)       20180510C   2O   1H   3N   0S       100      1500     500      1
   1.315708E+00   3.086843E-02  -2.724402E-05   1.271302E-08  -2.438934E-12    2
  -2.710952E+04  -7.035791E+00   1.983722E+00   2.633046E-02  -2.543365E-05    3
   3.996848E-08  -3.857586E-11  -2.715173E+04  -9.715557E+00                   4
CHCCH3(S)       20180510C   3O   0H   4N   0S       100      1500     500      1
   9.855897E-01   3.456660E-02  -2.950665E-05   1.356998E-08  -2.587568E-12    2
  -6.954638E+03  -6.398016E+00   7.631396E-01   3.900493E-02  -6.583545E-05    3
   1.150024E-07  -9.208464E-11  -6.910028E+03  -5.521598E+00                   4
CH2CCH2(S)      20180510C   3O   0H   4N   0S       100      1500     600      1
   1.902447E+00   3.214762E-02  -2.616359E-05   1.140207E-08  -2.067614E-12    2
  -4.711317E+03  -1.301278E+01   8.310186E-01   2.449119E-02   2.758630E-05    3
  -8.529462E-08   5.350192E-11  -4.291539E+03  -6.078339E+00                   4
CH3CCH2OH(S)    20180510C   3O   1H   6N   0S       100      1500     400      1
   9.682527E-01   4.783815E-02  -3.984157E-05   1.794605E-08  -3.365528E-12    2
  -3.260943E+04  -5.238040E+00   1.009622E+00   7.101068E-02  -2.089354E-04    3
   4.194187E-07  -3.138976E-10  -3.280590E+04  -7.804753E+00                   4
CH3CCH2O(S)     20180510C   3O   1H   5N   0S       100      1500     500      1
   8.323959E-01   4.378501E-02  -3.609097E-05   1.578454E-08  -2.861474E-12    2
  -2.340179E+04  -6.709774E+00  -5.407815E-02   6.536345E-02  -1.719606E-04    3
   3.346973E-07  -2.556523E-10  -2.339769E+04  -4.344373E+00                   4
CCHCH3(S)       20180510C   3O   0H   4N   0S       100      1500     500      1
   5.744510E-01   3.512723E-02  -2.933278E-05   1.315615E-08  -2.451849E-12    2
  -8.484320E+03  -4.805964E+00   8.128293E-01   3.448197E-02  -4.386903E-05    3
   7.277662E-08  -6.219974E-11  -8.475319E+03  -5.698354E+00                   4
CHCHCH2(S)      20180510C   3O   0H   4N   0S       100      1500     600      1
   1.039258E+00   3.451189E-02  -2.872493E-05   1.265886E-08  -2.299127E-12    2
  -6.029047E+03  -9.271670E+00   1.082924E+00   1.394486E-02   7.682972E-05    3
  -1.716059E-07   1.064822E-10  -5.674706E+03  -6.468071E+00                   4
CH3CHCHOH(S)    20180510C   3O   1H   6N   0S       100      1500     500      1
   2.324104E-01   5.041875E-02  -4.322496E-05   1.999996E-08  -3.830626E-12    2
  -4.049292E+04  -2.930397E+00   1.118222E+00   5.162418E-02  -9.591504E-05    3
   1.927623E-07  -1.624115E-10  -4.059937E+04  -7.172434E+00                   4
CH3CHCHO(S)     20180510C   3O   1H   5N   0S       100      1500     400      1
   7.149448E-01   4.518081E-02  -3.819011E-05   1.738967E-08  -3.297340E-12    2
  -3.160474E+04  -3.102098E+00   1.893909E+00   5.201129E-02  -1.287901E-04    3
   2.646610E-07  -2.080049E-10  -3.185326E+04  -9.615001E+00                   4
CH2CHCH2OH(S)   20180510C   3O   1H   6N   0S       100      1500     500      1
  -1.001684E-01   5.118306E-02  -4.378363E-05   2.003489E-08  -3.777093E-12    2
  -3.402821E+04  -5.321276E-01   2.471230E+00   3.532117E-02  -3.136913E-05    3
   8.181911E-08  -9.125081E-11  -3.426711E+04  -1.134079E+01                   4
CH2CHCH2O(S)    20180510C   3O   1H   5N   0S       100      1500     500      1
  -7.127171E-01   4.935390E-02  -4.348587E-05   2.017077E-08  -3.828174E-12    2
  -2.475822E+04   1.786378E-01   1.373687E+00   3.005051E-02   5.288978E-06    3
  -8.954662E-09  -1.963210E-11  -2.486692E+04  -7.772214E+00                   4
CCH2CH2(S)      20180510C   3O   0H   4N   0S       100      1500     700      1
   1.826972E+00   2.991160E-02  -2.199777E-05   8.462097E-09  -1.345055E-12    2
  -6.495270E+03  -1.195933E+01   1.057536E+00   2.102048E-02   2.916341E-05    3
  -7.580460E-08   4.375164E-11  -6.085542E+03  -6.301836E+00                   4
CH3CH2COH(S)    20180510C   3O   1H   6N   0S       100      1500     500      1
   7.974216E-01   4.774026E-02  -3.807868E-05   1.628280E-08  -2.899452E-12    2
  -4.021773E+04  -4.344718E+00   1.517791E+00   5.605126E-02  -1.298116E-04    3
   2.666462E-07  -2.147083E-10  -4.038270E+04  -8.632702E+00                   4
CH3CH2CO(S)     20180510C   3O   1H   5N   0S       100      1500     500      1
   9.998387E-01   4.322667E-02  -3.475501E-05   1.523130E-08  -2.823375E-12    2
  -3.819650E+04  -4.117856E+00   2.804583E+00   3.925500E-02  -6.994533E-05    3
   1.493958E-07  -1.274935E-10  -3.845329E+04  -1.259122E+01                   4
CHCH2CH(S)      20180510C   3O   0H   4N   0S       100      1500     600      1
   4.836590E-01   3.525732E-02  -2.925726E-05   1.262245E-08  -2.222577E-12    2
  -3.369325E+03  -7.804504E+00   2.028654E-04   2.437938E-02   3.327178E-05    3
  -9.703359E-08   6.093690E-11  -3.052713E+03  -3.591465E+00                   4
CHCH2CH2OH(S)   20180510C   3O   1H   6N   0S       100      1500     500      1
  -2.337202E-01   5.150038E-02  -4.324575E-05   1.932906E-08  -3.563258E-12    2
  -3.067258E+04   1.603673E-01   2.375909E+00   3.975644E-02  -5.583124E-05    3
   1.322893E-07  -1.269443E-10  -3.097888E+04  -1.139115E+01                   4
CH2CH2CHOH(S)   20180510C   3O   1H   6N   0S       100      1500     500      1
  -6.850234E-01   5.315905E-02  -4.681810E-05   2.196895E-08  -4.228409E-12    2
  -3.794577E+04   1.106434E-01   9.603135E-01   4.160500E-02  -3.663636E-05    3
   6.994955E-08  -7.480954E-11  -3.805699E+04  -6.506534E+00                   4
CHCH2CH2O(S)    20180510C   3O   1H   5N   0S       100      1500     500      1
  -8.462689E-01   4.967121E-02  -4.294798E-05   1.946494E-08  -3.614340E-12    2
  -2.140259E+04   8.711326E-01   1.278366E+00   3.448578E-02  -1.917313E-05    3
   4.151551E-08  -5.532560E-11  -2.157869E+04  -7.822566E+00                   4
CH2CH2CHO(S)    20180510C   3O   1H   5N   0S       100      1500     500      1
   1.630429E-01   4.696464E-02  -3.938695E-05   1.766517E-08  -3.293937E-12    2
  -2.936296E+04  -7.310297E-01   3.456348E+00   2.375402E-02   7.633026E-06    3
   4.712772E-09  -3.247696E-11  -2.968267E+04  -1.447415E+01                   4
COH(S)          20180510C   1O   1H   1N   0S       100      1500     500      1
   3.420650E+00   1.309210E-02  -1.344672E-05   6.942504E-09  -1.401775E-12    2
  -3.172933E+04  -1.721919E+01   3.330726E-01   3.757595E-02  -9.305337E-05    3
   1.301814E-07  -7.592261E-11  -3.138893E+04  -4.292765E+00                   4
! Included in WGS section below
!CO(S)           20180510C   1O   1H   0N   0S       100      1500     500      1
!   4.210645E+00   4.387022E-03  -3.162393E-06   1.150298E-09  -1.715954E-13    2
!  -3.117243E+04  -1.903879E+01   1.090660E+00   2.589286E-02  -5.489718E-05    3
!   4.816329E-08  -9.385344E-12  -3.082204E+04  -5.750282E+00                   4
CCH(S)          20180510C   2O   0H   1N   0S       100      1500     600      1
   3.108346E+00   1.207636E-02  -1.042952E-05   4.608827E-09  -8.187550E-13    2
   1.102854E+04  -1.742002E+01  -7.007279E-01   3.526792E-02  -6.562282E-05    3
   6.536256E-08  -2.673762E-11   1.154809E+04  -5.682842E-01                   4
CCH2OH(S)       20180510C   2O   1H   3N   0S       100      1500     500      1
   1.757538E+00   2.990583E-02  -2.688504E-05   1.264137E-08  -2.405929E-12    2
  -2.925759E+04  -9.689579E+00   7.857067E-01   4.137288E-02  -8.636348E-05    3
   1.456307E-07  -1.066579E-10  -2.915318E+04  -5.861029E+00                   4
CH2COH(S)       20180510C   2O   1H   3N   0S       100      1500     700      1
   3.849943E+00   2.313784E-02  -1.739020E-05   6.781088E-09  -1.073373E-12    2
  -3.140972E+04  -2.143988E+01   5.130983E-01   3.285680E-02  -1.660653E-05    3
  -1.699504E-08   1.685579E-11  -3.072018E+04  -4.933000E+00                   4
CCH2O(S)        20180510C   2O   1H   2N   0S       100      1500     600      1
   1.801510E+00   2.561192E-02  -2.282330E-05   1.035127E-08  -1.890695E-12    2
  -1.516073E+04  -1.164246E+01   2.529857E-01   3.099907E-02  -2.801369E-05    3
   1.202911E-08  -3.261368E-12  -1.486064E+04  -4.111079E+00                   4
CH2CO(S)        20180510C   2O   1H   2N   0S       100      1500     600      1
   2.709620E+00   2.273977E-02  -1.970496E-05   8.989427E-09  -1.687453E-12    2
  -2.966639E+04  -1.412976E+01   1.563288E+00   2.420765E-02  -8.627964E-06    3
  -1.951155E-08   1.709415E-11  -2.940901E+04  -8.227796E+00                   4
CHCHOH(S)       20180510C   2O   1H   3N   0S       100      1500     600      1
   2.106847E+00   3.005647E-02  -2.745075E-05   1.309527E-08  -2.527596E-12    2
  -2.810814E+04  -1.423258E+01  -1.491824E-02   3.339879E-02  -1.004156E-05    3
  -3.421571E-08   2.886308E-11  -2.764548E+04  -3.409516E+00                   4
CHCHO(S)        20180510C   2O   1H   2N   0S       100      1500     500      1
   1.885110E+00   2.615009E-02  -2.396180E-05   1.132207E-08  -2.165790E-12    2
  -2.147393E+04  -9.923991E+00   1.378424E+00   2.808552E-02  -3.138116E-05    3
   3.514982E-08  -2.752028E-11  -2.136722E+04  -7.412089E+00                   4
CCCH3(S)        20180510C   3O   0H   3N   0S       100      1500     500      1
   2.736210E+00   2.535366E-02  -2.018928E-05   8.649704E-09  -1.550751E-12    2
   5.238005E+03  -1.442300E+01  -8.934073E-01   6.809459E-02  -2.086964E-04    3
   3.700032E-07  -2.540829E-10   5.496837E+03  -7.840105E-01                   4
CHCCH2(S)       20180510C   3O   0H   3N   0S       100      1500     600      1
   1.844118E+00   2.948834E-02  -2.565607E-05   1.176971E-08  -2.210989E-12    2
  -1.900553E+03  -1.217427E+01   6.976545E-01   2.117778E-02   3.732207E-05    3
  -1.105901E-07   7.410367E-11  -1.473590E+03  -4.852844E+00                   4
CH3CCHOH(S)     20180510C   3O   1H   5N   0S       100      1500     500      1
   1.396054E+00   4.467281E-02  -3.917176E-05   1.837918E-08  -3.547957E-12    2
  -3.383050E+04  -9.599161E+00  -3.133453E-01   6.806883E-02  -1.640639E-04    3
   2.970252E-07  -2.210891E-10  -3.369067E+04  -3.273573E+00                   4
CH3CCHO(S)      20180510C   3O   1H   4N   0S       100      1500     400      1
   1.987489E+00   3.793262E-02  -3.177105E-05   1.417705E-08  -2.624352E-12    2
  -2.652572E+04  -1.005596E+01   6.934424E-01   6.601806E-02  -1.920254E-04    3
   3.629915E-07  -2.613571E-10  -2.653870E+04  -6.502038E+00                   4
CH2CCH2OH(S)    20180510C   3O   1H   5N   0S       100      1500     500      1
   1.063475E+00   4.543712E-02  -3.973044E-05   1.841411E-08  -3.494424E-12    2
  -2.736579E+04  -7.200891E+00   1.039662E+00   5.176582E-02  -9.951801E-05    3
   1.860820E-07  -1.499284E-10  -2.735842E+04  -7.441933E+00                   4
CH2CCH2O(S)     20180510C   3O   1H   4N   0S       100      1500     500      1
   4.509267E-01   4.360796E-02  -3.943267E-05   1.854999E-08  -3.545506E-12    2
  -1.809580E+04  -6.490126E+00  -5.788041E-02   4.649516E-02  -6.285990E-05    3
   9.530822E-08  -7.830974E-11  -1.795823E+04  -3.873353E+00                   4
CCHCH2(S)       20180510C   3O   0H   3N   0S       100      1500     600      1
   1.664027E+00   2.875731E-02  -2.343036E-05   9.947239E-09  -1.724868E-12    2
   1.314948E+03  -1.072513E+01   1.296225E+00   1.589989E-02   5.017032E-05    3
  -1.240592E-07   7.953589E-11   1.628756E+03  -6.890386E+00                   4