THERMO                                                                          
   300      5000      1000                                                      
CH3CH2CH2OH             C   3H   8O   1     G200       6000      1000          1
 8.52377408E+00 2.10371210E-02-7.48398370E-06 1.19958663E-09-7.14873013E-14    2
-3.50702414E+04-1.77857176E+01 5.41877541E+00-5.75566129E-04 8.51215375E-05    3
-1.11060442E-07 4.43007063E-11-3.28368377E+04 5.29974117E+00                   4

CH3CH2CHO               C   3H   6O   1     G200       6000      1000          1
 7.44085690E+00 1.77301764E-02-6.34081568E-06 1.02040803E-09-6.09461714E-14    2
-2.60055814E+04-1.44195446E+01 4.24529681E+00 6.68296706E-03 4.93337933E-05    3
-6.71986124E-08 2.67262347E-11-2.41473007E+04 6.90738560E+00                   4

CH2CHCH2OH              C   3H   6O   1     G200       6000      1000          1
 8.72477114E+00 1.63942712E-02-5.90852993E-06 9.53262253E-10-5.70318010E-14    2
-1.90496618E+04-1.97198674E+01 3.15011905E+00 1.28538274E-02 4.28438434E-05    3
-6.67818707E-08 2.80408237E-11-1.66413668E+04 1.35066359E+01                   4

CH2CHCHO                C   3H   4O   1     G200       6000      1000          1
 8.20654919E+00 1.28492916E-02-4.64285331E-06 7.51738738E-10-4.51298116E-14    2
-1.18838341E+04-1.49881933E+01 4.69868861E+00 4.99965957E-03 4.38587397E-05    3
-6.12883900E-08 2.48508985E-11-1.00875286E+04 7.29812046E+00                   4

CH3CH2CH3               C   3H   8          G200       6000      1000          1
 6.66919760E+00 2.06108751E-02-7.36512349E-06 1.18434262E-09-7.06914630E-14    2
-1.62754066E+04-1.31943379E+01 4.21093013E+00 1.70886504E-03 7.06530164E-05    3
-9.20060565E-08 3.64618453E-11-1.43810883E+04 5.61004451E+00                   4

CH3CHCH2                C   3H   6          G200       6000      1000          1
 6.03870234E+00 1.62963931E-02-5.82130800E-06 9.35936829E-10-5.58603143E-14    2
-7.41715057E+02-8.43825992E+00 3.83464468E+00 3.29078952E-03 5.05228001E-05    3
-6.66251176E-08 2.63707473E-11 7.88717123E+02 7.53408013E+00                   4

CH3CCH                  C   3H   4          G200       6000      1000          1
 6.02524000E+00 1.13365420E-02-4.02233910E-06 6.43760630E-10-3.82996350E-14    2
 1.96209420E+04-8.60437850E+00 2.68038690E+00 1.57996510E-02 2.50705960E-06    3
-1.36576230E-08 6.61542850E-12 2.08023740E+04 9.87693510E+00                   4

CH3CH2OH                C   2H   6O   1     G200       6000      1E+03         1
 6.56243650E+00 1.52042220E-02-5.38967950E-06 8.62250110E-10-5.12897870E-14    2
-3.15256210E+04-9.47302020E+00 4.85869570E+00-3.74017260E-03 6.95553780E-05    3
-8.86547960E-08 3.51688350E-11-2.99961320E+04 4.80185450E+00                   4

CH3CHO                  C   2H   4O   1     G200       6000      1E+03         1
 5.40411080E+00 1.17230590E-02-4.22631370E-06 6.83724510E-10-4.09848630E-14    2
-2.25931220E+04-3.48079170E+00 4.72945950E+00-3.19328580E-03 4.75349210E-05    3
-5.74586110E-08 2.19311120E-11-2.15728780E+04 4.10301590E+00                   4

CH3CH3                  C   2H   6          G200       3500      1E+03         1
 1.07188150E+00 2.16852677E-02-1.00256067E-05 2.21412001E-09-1.90002890E-13    2
-1.14263932E+04 1.51156107E+01 4.29142492E+00-5.50154270E-03 5.99438288E-05    3
-7.08466285E-08 2.68685771E-11-1.15222055E+04 2.66682316E+00                   4

CH2CH2                  C   2H   4          G200       3500      1E+03         1
 2.03611116E+00 1.46454151E-02-6.71077915E-06 1.47222923E-09-1.25706061E-13    2
 4.93988614E+03 1.03053693E+01 3.95920148E+00-7.57052247E-03 5.70990292E-05    3
-6.91588753E-08 2.69884373E-11 5.08977593E+03 4.09733096E+00                   4

CHCH                    C   2H   2          G200       6000      1E+03         1
 4.65878489E+00 4.88396667E-03-1.60828888E-06 2.46974544E-10-1.38605959E-14    2
 2.57594042E+04-3.99838194E+00 8.08679682E-01 2.33615762E-02-3.55172234E-05    3
 2.80152958E-08-8.50075165E-12 2.64289808E+04 1.39396761E+01                   4

CH3OH                   C   1H   4O   1     G200       3500      1E+03         1
 1.78970791E+00 1.40938292E-02-6.36500835E-06 1.38171085E-09-1.17060220E-13    2
-2.53748747E+04 1.45023623E+01 5.71539582E+00-1.52309129E-02 6.52441155E-05    3
-7.10806889E-08 2.61352698E-11-2.56427656E+04-1.50409823E+00                   4

CH2O                    C   1H   2O   1     G200       3500      1E+03         1
 1.76069008E+00 9.20000082E-03-4.42258813E-06 1.00641212E-09-8.83855640E-14    2
-1.39958323E+04 1.36563230E+01 4.79372315E+00-9.90833369E-03 3.73220008E-05    3
-3.79285261E-08 1.31772652E-11-1.43089567E+04 6.02812900E-01                   4

CH4                     C   1H   4          G200       3500      1E+03         1
 7.48514950E-02 1.33909467E-02-5.73285809E-06 1.22292535E-09-1.01815230E-13    2
-9.46834459E+03 1.84373180E+01 5.14987613E+00-1.36709788E-02 4.91800599E-05    3
-4.84743026E-08 1.66693956E-11-1.02466476E+04-4.64130376E+00                   4

H2                      H   2               G200       3500      1E+03         1
 3.33727920E+00-4.94024731E-05 4.99456778E-07-1.79566394E-10 2.00255376E-14    2
-9.50158922E+02-3.20502331E+00 2.34433112E+00 7.98052075E-03-1.94781510E-05    3
 2.01572094E-08-7.37611761E-12-9.17935173E+02 6.83010238E-01                   4

O2                      O   2               G200       6000      1E+03         1
 3.66096065E+00 6.56365811E-04-1.41149627E-07 2.05797935E-11-1.29913436E-15    2
-1.21597718E+03 3.41536279E+00 3.78245636E+00-2.99673416E-03 9.84730201E-06    3
-9.68129509E-09 3.24372837E-12-1.06394356E+03 3.65767573E+00                   4

CO                      C   1O   1          G200       3500      1E+03         1
 2.71518561E+00 2.06252743E-03-9.98825771E-07 2.30053008E-10-2.03647716E-14    2
-1.41518724E+04 7.81868772E+00 3.57953347E+00-6.10353680E-04 1.01681433E-06    3
 9.07005884E-10-9.04424499E-13-1.43440860E+04 3.50840928E+00                   4

CO2                     C   1O   2          G200       3500      1E+03         1
 3.85746029E+00 4.41437026E-03-2.21481404E-06 5.23490188E-10-4.72084164E-14    2
-4.87591660E+04 2.27163806E+00 2.35677352E+00 8.98459677E-03-7.12356269E-06    3
 2.45919022E-09-1.43699548E-13-4.83719697E+04 9.90105222E+00                   4

H2O                     H   2O   1          G200       3500      1E+03         1
 3.03399249E+00 2.17691804E-03-1.64072518E-07-9.70419870E-11 1.68200992E-14    2
-3.00042971E+04 4.96677010E+00 4.19864056E+00-2.03643410E-03 6.52040211E-06    3
-5.48797062E-09 1.77197817E-12-3.02937267E+04-8.49032208E-01                   4

HE                      HE  1               G200       6000      1E+03         1
 2.50000000E+00 0.00000000E+00 0.00000000E+00 0.00000000E+00 0.00000000E+00    2
-7.45375000E+02 9.28723974E-01 2.50000000E+00 0.00000000E+00 0.00000000E+00    3
 0.00000000E+00 0.00000000E+00-7.45375000E+02 9.28723974E-01                   4

CH3CH2CH2OH(S)          C   3H   8O   1     S100       1500      444           1
-2.85610009E+00 5.63108698E-02-4.54779039E-05 2.02989569E-08-3.83207104E-12    2
-3.08916244E+04 1.35198059E+01 1.11134479E+00 4.85256088E-02-1.31067543E-04    3
 3.43316855E-07-3.10328555E-10-3.14660495E+04-5.20796411E+00                   4

CH3CH2CHOH(S)           C   3H   7O   1     S100       1500      470           1
-2.40037186E+00 5.59252760E-02-4.79786625E-05 2.23647718E-08-4.33324437E-12    2
-3.46071880E+04 9.97389639E+00 8.85774051E-01 4.01150936E-02-5.74554601E-05    3
 1.51018525E-07-1.50227146E-10-3.49859306E+04-4.46259925E+00                   4

CH3CH2COH(S)            C   3H   6O   1     S100       1500      473           1
-6.06207635E-01 5.06042877E-02-4.34460108E-05 2.00983082E-08-3.85929937E-12    2
-3.57974835E+04 1.63375921E+00-1.15393496E-01 5.66572649E-02-1.15457952E-04    3
 2.24953773E-07-1.82090190E-10-3.58973752E+04-1.22440673E+00                   4

CH3CHCH2OH(S)           C   3H   7O   1     S298       1000      542           1
-8.31681128E-01 5.24244465E-02-4.79790525E-05 2.66381980E-08-6.77178261E-12    2
-3.33400337E+04 7.13185922E+00 5.60044889E+00 2.75523293E-03 8.34021359E-05    3
-1.12491870E-07 4.01105800E-11-3.39580685E+04-1.94098780E+01                   4

CH3CHCHOH(S)            C   3H   6O   1     S298       1000      559           1
-1.28278850E+00 5.66904875E-02-5.65629817E-05 3.12809366E-08-7.25598742E-12    2
-3.56933854E+04 5.38497093E+00 3.71388272E+00 1.54652850E-02 6.09154034E-05    3
-1.07675359E-07 5.02066796E-11-3.61412507E+04-1.49001856E+01                   4

CH3CHCOH(S)             C   3H   5O   1     S298       1000      563           1
 4.63093106E-01 4.61198951E-02-4.26255471E-05 2.10965162E-08-4.20681190E-12    2
-3.24719406E+04-3.20933817E+00 3.62747124E+00 1.70685049E-02 4.57758645E-05    3
-8.88867017E-08 4.35484617E-11-3.27103749E+04-1.56288602E+01                   4

CH3CCH2OH(S)            C   3H   6O   1     S298       1000      543           1
-9.71574427E-01 5.42226540E-02-5.52396045E-05 3.29399508E-08-8.58947839E-12    2
-2.81224140E+04 6.68716002E+00 6.39028975E+00 1.07001015E-03 7.93750639E-05    3
-1.05997344E-07 3.80345084E-11-2.88916473E+04-2.42581529E+01                   4

CH3CCHOH(S)             C   3H   5O   1     S298       1000      531           1
-1.74760166E+00 5.88537464E-02-6.53047557E-05 3.92010199E-08-9.65581291E-12    2
-2.92728391E+04 7.20840804E+00 3.54766577E+00 2.25630733E-02 2.13127007E-05    3
-4.23953610E-08 1.25958346E-11-2.98531365E+04-1.53147803E+01                   4

CH3CCOH(S)              C   3H   4O   1     S298       1000      542           1
 1.52681630E+00 4.00415210E-02-3.49270479E-05 1.46517930E-08-1.97411622E-12    2
-2.62548288E+04-8.25060327E+00 4.11306745E+00 1.82070871E-02 2.60002964E-05    3
-5.21549460E-08 2.10477670E-11-2.64725854E+04-1.86393771E+01                   4

CH2CH2CH2OH(S)          C   3H   7O   1     S298       1500      998           1
 1.71196301E+01 2.06236221E-02-2.30370808E-05 1.29549173E-08-2.80105163E-12    2
-3.88527851E+04-8.85637721E+01-1.24766269E-01 4.68580828E-02-2.13740155E-05    3
-9.07335473E-09 8.59294866E-12-3.48539480E+04 1.96422210E+00                   4

CH2CH2CHOH(S)           C   3H   6O   1     S298       1000      529           1
-2.21428333E+00 5.95360198E-02-5.34231531E-05 2.20657301E-08-2.47282120E-12    2
-3.65553285E+04 8.67421554E+00 7.16787584E-01 3.86204616E-02-3.08951149E-06    3
-2.32227628E-08 7.13201808E-12-3.68593312E+04-3.64590777E+00                   4

CH2CH2COH(S)            C   3H   5O   1     S298       1000      562           1
-5.68011933E-01 5.06697299E-02-4.18246953E-05 1.34678160E-08 1.29655503E-13    2
-3.44743094E+04-2.37859914E-01 7.71515704E-01 3.84931839E-02-5.17979024E-06    3
-3.14582011E-08 1.92177499E-11-3.45764650E+04-5.50906522E+00                   4

CH2CHCH2OH(S)           C   3H   6O   1     S298       1000      554           1
 1.36277858E+00 4.04087943E-02-2.56458545E-05 5.85009435E-09 4.12068458E-13    2
-2.99866359E+04-4.36823067E+00 3.28019257E+00 1.52502667E-02 6.17873461E-05    3
-1.08963292E-07 5.03884786E-11-3.00092636E+04-1.07623927E+01                   4

CH2CHCHOH(S)            C   3H   5O   1     S298       1000      550           1
 3.29841953E-01 4.69543459E-02-3.72440996E-05 1.19445413E-08-2.04867151E-13    2
-3.22440071E+04-3.35328088E+00 3.54937745E-01 3.80915237E-02 2.76637819E-06    3
-4.62506234E-08 2.63343842E-11-3.21085798E+04-2.17045225E+00                   4

CH2CHCOH(S)             C   3H   4O   1     S298       1000      556           1
 1.47946754E+00 4.00077587E-02-3.12358101E-05 9.24159686E-09 2.58433804E-13    2
-2.89493748E+04-9.34445542E+00 5.62196624E-01 3.71109583E-02-4.16988616E-06    3
-3.86694181E-08 2.53279182E-11-2.87034158E+04-4.08377992E+00                   4

CH2CCH2OH(S)            C   3H   5O   1     S298       1000      552           1
 1.48078530E+00 3.99420060E-02-3.01390117E-05 1.08731565E-08-1.29384010E-12    2
-2.36500665E+04-5.24593166E+00 3.93427237E+00 1.44086886E-02 5.10084416E-05    3
-9.00936474E-08 4.06819718E-11-2.37839189E+04-1.44098203E+01                   4

CH2CCHOH(S)             C   3H   4O   1     S298       1000      641           1
-3.96122296E+00 6.76981396E-02-8.26436717E-05 5.13139625E-08-1.25606538E-11    2
-2.41299766E+04 1.65699496E+01 2.37090169E+00 2.32981423E-02 3.88526642E-05    3
-9.97732924E-08 5.85214195E-11-2.48528475E+04-1.04758357E+01                   4

CH2CCOH(S)              C   3H   3O   1     S298       1000      555           1
 1.59142704E+00 3.95710472E-02-3.57844744E-05 1.43097512E-08-1.46109175E-12    2
-2.26119316E+04-1.01945735E+01 1.10577168E+00 3.69787310E-02-1.64730604E-05    3
-1.86604727E-08 1.55328990E-11-2.24653952E+04-7.25523048E+00                   4

CHCH2CH2OH(S)           C   3H   6O   1     S298       1500      994           1
 3.55584254E+00 5.63327619E-02-6.43608339E-05 3.41275866E-08-6.85408654E-12    2
-3.00321094E+04-2.10769498E+01-4.36003517E-01 4.76694668E-02-3.07574692E-05    3
 1.74180495E-09 4.62404357E-12-2.86951853E+04 3.01981942E+00                   4

CHCH2CHOH(S)            C   3H   5O   1     S298       1000      539           1
-1.02527381E+00 5.26953652E-02-4.85524521E-05 2.13816305E-08-3.04599231E-12    2
-3.06085683E+04 2.92479897E+00 1.15356613E+00 3.27514097E-02 9.26527472E-06    3
-4.28741839E-08 1.87017028E-11-3.07658478E+04-5.58816301E+00                   4

CHCH2COH(S)             C   3H   4O   1     S298       1000      547           1
 3.24919948E-01 4.51006784E-02-3.87429207E-05 1.36210235E-08-4.66450836E-13    2
-2.84816312E+04-4.60731394E+00 1.21315035E+00 3.33898352E-02 1.40232959E-06    3
-3.74477787E-08 2.03551450E-11-2.84895370E+04-7.55079372E+00                   4

CHCHCH2OH(S)            C   3H   5O   1     S298       1000      555           1
 2.83137462E+00 3.08964593E-02-1.64227511E-05 1.71547347E-09 9.16809058E-13    2
-2.29245158E+04-1.06111590E+01 3.64910871E+00 9.71514629E-03 6.91236617E-05    3
-1.19384884E-07 5.66721772E-11-2.27696823E+04-1.17976075E+01                   4

CHCHCHOH(S)             C   3H   4O   1     S298       1000      571           1
 3.41360804E+00 2.93039525E-02-1.28377568E-05-4.66338375E-09 4.11658045E-12    2
-2.54130341E+04-1.69446240E+01 1.47805910E+00 2.53405812E-02 3.53542816E-05    3
-9.53891854E-08 5.46930937E-11-2.49301470E+04-6.17534021E+00                   4

CHCHCOH(S)              C   3H   3O   1     S298       1000      647           1
 8.41038042E+00 3.31986417E-03 2.82390657E-05-3.58716312E-08 1.32085212E-11    2
-2.26718092E+04-4.05031546E+01 1.13903969E+00 2.90074179E-02 1.46507435E-05    3
-7.09843043E-08 4.65900679E-11-2.14719038E+04-5.88451722E+00                   4

CHCCH2OH(S)             C   3H   4O   1     S298       1000      554           1
 2.93571568E+00 3.04995678E-02-2.10486155E-05 6.84942749E-09-8.23524892E-13    2
-1.65860092E+04-1.14268515E+01 4.30092610E+00 8.89637011E-03 5.82596111E-05    3
-1.00375592E-07 4.68807617E-11-1.65441602E+04-1.54362246E+01                   4

CHCCHOH(S)              C   3H   3O   1     S298       1000      585           1
 5.22194946E+00 1.91985353E-02-3.90094108E-07-1.29397308E-08 6.30506058E-12    2
-1.81701770E+04-2.47545827E+01 2.27767740E+00 2.21644768E-02 3.07784385E-05    3
-8.66809453E-08 5.16068758E-11-1.75751975E+04-9.68696777E+00                   4

CHCCOH(S)               C   3H   2O   1     S298       1000      582           1
 3.12415968E+00 2.92774478E-02-2.73636189E-05 1.23359303E-08-2.00619653E-12    2
-1.44187819E+04-1.60833571E+01 1.56662925E+00 2.97263749E-02-5.21764429E-06    3
-3.61381454E-08 2.71999230E-11-1.40880075E+04-7.95679181E+00                   4

CCH2CH2OH(S)            C   3H   5O   1     S298       1500      994           1
 5.13788453E+00 4.77603541E-02-5.34248072E-05 2.80165419E-08-5.58975925E-12    2
-2.88794197E+04-2.99018644E+01-2.81124133E-01 4.70706242E-02-3.17066411E-05    3
 2.31173688E-09 4.54203632E-12-2.73789497E+04 4.20877745E-01                   4

CCH2CHOH(S)             C   3H   4O   1     S298       1000      552           1
 3.20499489E-01 4.34165708E-02-3.59430646E-05 1.21327158E-08-3.81793248E-13    2
-2.66056427E+04-3.23032619E+00 1.71008010E+00 2.68781964E-02 1.94483870E-05    3
-5.87560216E-08 2.96129626E-11-2.66483190E+04-8.11163429E+00                   4

CCH2COH(S)              C   3H   3O   1     S298       1000      575           1
-1.48297731E+00 5.19788834E-02-6.00168853E-05 3.49694441E-08-7.93130669E-12    2
-2.29007796E+04 4.10735663E+00 1.16559812E+00 3.20764708E-02-5.33288467E-06    3
-2.98809910E-08 1.99161574E-11-2.31739717E+04-6.96186787E+00                   4

CCHCH2OH(S)             C   3H   4O   1     S298       1000      552           1
 1.70789767E+00 3.40731527E-02-3.02388510E-05 1.64287310E-08-4.34849060E-12    2
-1.74370194E+04-4.96460570E+00 3.56154414E+00 9.55894173E-03 5.54032148E-05    3
-9.66091108E-08 4.51460700E-11-1.74567293E+04-1.11226733E+01                   4

CCHCHOH(S)              C   3H   3O   1     S298       1000      564           1
 2.08153555E+00 3.37582822E-02-2.95302178E-05 1.28743659E-08-2.17073381E-12    2
-1.98998186E+04-1.03855939E+01 1.30425944E+00 2.58754022E-02 1.94435622E-05    3
-6.90961473E-08 4.08283898E-11-1.96086932E+04-5.14420558E+00                   4

CCHCOH(S)               C   3H   2O   1     S298       1000      564           1
 3.33146998E+00 2.59434695E-02-2.12875902E-05 7.87718321E-09-8.78895024E-13    2
-1.66121010E+04-1.67701036E+01 1.10869385E+00 2.85632206E-02 3.18502477E-07    3
-4.38881377E-08 3.03454904E-11-1.61691491E+04-5.45138229E+00                   4

CCCH2OH(S)              C   3H   3O   1     S298       1000      548           1
 2.41077757E+00 3.06049962E-02-2.90197385E-05 1.66700107E-08-4.56794823E-12    2
-1.11831482E+04-8.49440362E+00 4.41837220E+00 6.91633964E-03 4.99070324E-05    3
-8.35588728E-08 3.71928034E-11-1.12477846E+04-1.55751549E+01                   4

CCCHOH(S)               C   3H   2O   1     S298       1000      573           1
 4.04389738E+00 2.26346310E-02-1.46677493E-05 2.13761137E-09 9.32423722E-13    2
-1.26745296E+04-1.88569130E+01 2.46266880E+00 1.98370695E-02 2.28787416E-05    3
-6.97262111E-08 4.15312530E-11-1.22876117E+04-1.01277560E+01                   4

CCCOH(S)                C   3H   1O   1     S298       1000      574           1
 5.26268137E+00 1.49815392E-02-6.73631682E-06-2.59637133E-09 2.14166010E-12    2
-9.37741202E+03-2.51004876E+01 2.22959839E+00 2.28953891E-02 2.40093538E-06    3
-4.23546259E-08 2.97690611E-11-8.84004137E+03-1.02881721E+01                   4

CH3CH2CH2O(S)           C   3H   7O   1     S298       1000      548           1
-1.64079121E+00 5.13046508E-02-4.27530326E-05 1.97588096E-08-3.79946920E-12    2
-2.55598824E+04 1.10780872E+01 3.22260190E+00 1.79751840E-02 3.85567704E-05    3
-6.22235490E-08 2.36454448E-11-2.60978264E+04-9.63828071E+00                   4

CH3CH2CHO(S)            C   3H   6O   1     S100       1500      463           1
-3.33655792E+00 4.71702084E-02-3.94236208E-05 1.78999440E-08-3.40135569E-12    2
-2.75086157E+04 1.40437483E+01 2.80099838E-01 2.75494316E-02-3.07429908E-05    3
 1.09380763E-07-1.22494711E-10-2.79161371E+04-1.67131933E+00                   4

CH3CH2CO(S)             C   3H   5O   1     S100       1500      459           1
-9.60457074E-01 4.50234246E-02-3.88197781E-05 1.79427802E-08-3.43398265E-12    2
-3.22780899E+04 3.17494870E+00-6.61543305E-01 5.85502392E-02-1.53701834E-04    3
 3.13741453E-07-2.49201499E-10-3.24220530E+04 4.17243912E-01                   4

CH3CHCH2O(S)            C   3H   6O   1     S298       1000      567           1
-2.48211337E+00 6.07079747E-02-6.11052768E-05 3.39710325E-08-7.90722956E-12    2
-2.64615653E+04 1.07922301E+01 3.09157586E+00 1.89798280E-02 5.12956868E-05    3
-9.42416973E-08 4.35805381E-11-2.70326664E+04-1.24880257E+01                   4

CH3CHCHO(S)             C   3H   5O   1     S298       1500      993           1
 1.66892486E+00 5.24248726E-02-5.75161821E-05 3.03978862E-08-6.18378008E-12    2
-2.40251924E+04-9.96189284E+00 1.02339455E+00 3.76949941E-02-1.92532507E-05    3
-3.97221747E-09 5.33071874E-12-2.34535949E+04-3.31197317E+00                   4

CH3CHCO(S)              C   3H   4O   1     S298       1500      995           1
 9.86238318E+00 1.87837796E-02-1.56333912E-05 7.42874215E-09-1.50108778E-12    2
-3.22893928E+04-5.06377685E+01 4.34540478E-01 4.12814871E-02-3.42429044E-05    3
 1.16720033E-08-1.87088213E-13-3.03230261E+04-2.84236574E+00                   4

CH3CCH2O(S)             C   3H   5O   1     S298       1000      536           1
-1.84086150E+00 5.87604900E-02-6.18922529E-05 3.55310197E-08-8.49283383E-12    2
-2.13537323E+04 6.77041913E+00 3.05631069E+00 2.51752796E-02 1.91066528E-05    3
-4.31972911E-08 1.52203571E-11-2.18923039E+04-1.40697160E+01                   4

CH3CCHO(S)              C   3H   4O   1     S298       1000      539           1
 8.53085188E-01 3.63079938E-02-3.06426512E-05 1.48849988E-08-3.35299390E-12    2
-2.14470256E+04-1.93865318E+00 5.59433034E+00 1.77957163E-03 5.62676725E-05    3
-7.21663270E-08 2.33255996E-11-2.19343646E+04-2.18042317E+01                   4

CH3CCO(S)               C   3H   3O   1     S298       1500      995           1
 4.47988069E+00 2.84012557E-02-2.71287750E-05 1.35353175E-08-2.71514890E-12    2
-2.71170210E+04-2.36566850E+01 5.04930673E-01 3.91283131E-02-3.97754293E-05    3
 2.11014099E-08-4.37865411E-12-2.63111079E+04-3.70874932E+00                   4

CH2CH2CH2O(S)           C   3H   6O   1     S298       1000      565           1
-1.76129928E+00 5.38208061E-02-4.52058632E-05 1.81964973E-08-2.26504611E-12    2
-2.47311217E+04 8.22065536E+00 3.51018785E-01 3.72861466E-02 4.68751001E-07    3
-3.49393237E-08 1.96473650E-11-2.49348663E+04-4.88617220E-01                   4

CH2CH2CHO(S)            C   3H   5O   1     S298       1500      999           1
 9.26482110E+00 3.67677011E-02-4.17373265E-05 2.25790090E-08-4.65608587E-12    2
-2.96639081E+04-5.30921712E+01-2.18315569E+00 5.68100947E-02-4.87754517E-05    3
 1.60339449E-08 3.40830249E-13-2.70687585E+04 6.51891668E+00                   4

CH2CH2CO(S)             C   3H   4O   1     S298       1000      616           1
 5.96520907E+00 1.96604511E-02-2.01809351E-06-6.05814257E-09 2.01578997E-12    2
-3.29122720E+04-2.99424028E+01-2.14787119E+00 6.06627982E-02-7.22378467E-05    3
 3.64971136E-08-1.08269562E-12-3.17780268E+04 6.80900963E+00                   4

CH2CHCH2O(S)            C   3H   5O   1     S298       1000      544           1
-1.00757769E+00 5.26204407E-02-4.67360623E-05 2.02975486E-08-3.08751450E-12    2
-2.30106971E+04 2.52362970E+00-5.53698414E-01 4.41507161E-02-1.49357834E-05    3
-2.20504865E-08 1.47294707E-11-2.29752465E+04 1.38836633E+00                   4

CH2CHCHO(S)             C   3H   4O   1     S298       1000      557           1
 2.59294828E+00 2.85084728E-02-1.04633758E-05-5.78766952E-09 4.05533311E-12    2
-2.09196531E+04-1.02602009E+01 3.63100912E+00 1.28035567E-02 4.64024667E-05    3
-8.21113654E-08 3.78865212E-11-2.08986647E+04-1.34122822E+01                   4

CH2CHCO(S)              C   3H   3O   1     S298       1000      640           1
 5.69798803E+00 1.50907309E-02 1.15608003E-05-2.54004645E-08 1.08804390E-11    2
-2.74316210E+04-2.85089979E+01-4.17840180E-01 4.26579370E-02-2.69418010E-05    3
-1.38824344E-08 1.81766905E-11-2.65194983E+04-2.87493766E-01                   4

CH2CCH2O(S)             C   3H   4O   1     S298       1000      564           1
 1.81758485E+00 3.78886809E-02-2.34837508E-05 1.71387248E-09 2.62497356E-12    2
-1.70492134E+04-1.05645478E+01 9.40870656E-01 3.54904250E-02 8.83332957E-07    3
-4.25207582E-08 2.64844514E-11-1.68203546E+04-5.59372331E+00                   4

CH2CCHO(S)              C   3H   3O   1     S298       1000      563           1
 2.61677540E+00 2.59180374E-02-1.35343915E-05-6.32291515E-11 1.61321415E-12    2
-1.68896686E+04-1.08110478E+01 3.19291121E+00 1.43113703E-02 3.19787120E-05    3
-6.48073068E-08 3.23289029E-11-1.68342226E+04-1.21447133E+01                   4

CH2CCO(S)               C   3H   2O   1     S298       1000      619           1
 3.31755202E+00 2.38628609E-02-1.44044840E-05 1.29118581E-10 2.16135117E-12    2
-2.19116279E+04-1.74210400E+01-1.40532631E+00 4.91813636E-02-6.31774046E-05    3
 3.89890601E-08-7.90652824E-12-2.12699645E+04 3.78368050E+00                   4

CHCH2CH2O(S)            C   3H   5O   1     S298       1000      546           1
-1.00761608E+00 4.89682820E-02-4.34913370E-05 1.94970313E-08-3.21861859E-12    2
-1.87187929E+04 4.48229129E+00 5.31038726E-01 3.44310529E-02 3.60343388E-07    3
-3.26536882E-08 1.71973006E-11-1.88254152E+04-1.47873642E+00                   4

CHCH2CHO(S)             C   3H   4O   1     S298       1000      557           1
 1.65758018E+00 3.86082832E-02-2.71698201E-05 7.12203124E-09 2.77654696E-13    2
-2.42467938E+04-7.39673028E+00 2.83379198E+00 2.28694896E-02 2.81572971E-05    3
-6.65511874E-08 3.30707788E-11-2.42566424E+04-1.12788131E+01                   4

CHCH2CO(S)              C   3H   3O   1     S298       1000      625           1
 5.23399308E+00 2.22271786E-02-1.40909244E-05 6.53929109E-09-2.38237902E-12    2
-2.66858712E+04-2.69126552E+01-1.38261314E+00 5.20059986E-02-5.10766626E-05    3
 4.60206423E-09 1.67892170E-11-2.57151559E+04 3.53067875E+00                   4

CHCHCH2O(S)             C   3H   4O   1     S298       1000      560           1
 1.35160567E+00 3.85707333E-02-2.90512935E-05 9.31414530E-09-5.44682332E-13    2
-1.60746197E+04-7.76030217E+00 8.51227296E-02 3.58895482E-02 2.59935168E-06    3
-4.92209663E-08 3.12007813E-11-1.57567880E+04-6.97348464E-01                   4

CHCHCHO(S)              C   3H   3O   1     S298       1000      563           1
 2.14469733E+00 3.20306344E-02-2.39899497E-05 7.19123251E-09-1.46417192E-13    2
-1.27247607E+04-9.97750697E+00 3.44883700E-01 3.61335671E-02-1.58624378E-05    3
-2.01750865E-08 1.77427194E-11-1.23966777E+04-1.10099707E+00                   4

CHCHCO(S)               C   3H   2O   1     S298       1000      632           1
 2.29471486E+00 2.96978004E-02-2.56561021E-05 9.60498633E-09-8.29647941E-13    2
-1.89105402E+04-1.21257005E+01-3.62720392E-02 3.65488412E-02-1.92435128E-05    3
-2.52192087E-08 2.56883396E-11-1.85204145E+04-9.17064933E-01                   4

CHCCH2O(S)              C   3H   3O   1     S298       1000      565           1
 3.70146723E+00 2.60387279E-02-9.36946694E-06-6.92907614E-09 4.67419685E-12    2
-1.00420443E+04-1.86572685E+01 1.20097997E+00 3.06513723E-02 6.72992251E-06    3
-5.18339353E-08 3.26822500E-11-9.56825872E+03-6.15994246E+00                   4

CHCCHO(S)               C   3H   2O   1     S298       1000      644           1
 5.52684296E+00 1.27110774E-02 4.80322870E-06-1.38981085E-08 5.78766401E-12    2
-7.96719555E+03-2.66055294E+01 9.38637494E-02 3.53854244E-02-2.14876841E-05    3
-1.51633995E-08 1.78362979E-11-7.12606294E+03-1.25504079E+00                   4

CHCCO(S)                C   3H   1O   1     S298       1000      635           1
-2.06697697E-01 3.98798701E-02-5.26107085E-05 3.49054513E-08-9.21656277E-12    2
-1.45151905E+04-1.19652640E+00-9.72071706E-01 4.29349475E-02-5.13381148E-05    3
 2.01249620E-08 3.67946999E-12-1.44109027E+04 2.30193446E+00                   4

CCH2CH2O(S)             C   3H   4O   1     S298       1000      545           1
-1.14761272E+00 4.97561410E-02-4.67218152E-05 2.15668221E-08-3.60163973E-12    2
-1.73539091E+04 3.23872993E+00 5.54988847E-01 3.50362300E-02-4.39996816E-06    3
-2.71495714E-08 1.49335481E-11-1.74936755E+04-3.56056294E+00                   4

CCH2CHO(S)              C   3H   3O   1     S298       1000      558           1
 1.54585215E+00 3.92499521E-02-3.01199292E-05 8.95537878E-09-3.13472094E-14    2
-2.28858853E+04-8.76828707E+00 2.87713162E+00 2.32815850E-02 2.41081557E-05    3
-6.21954069E-08 3.14930442E-11-2.29264394E+04-1.34363654E+01                   4

CCH2CO(S)               C   3H   2O   1     S298       1000      622           1
 6.10802668E+00 1.53287818E-02-7.97571968E-06 4.03322067E-09-2.14612019E-12    2
-2.18631689E+04-3.05488781E+01-1.15877858E+00 4.91873084E-02-5.51309434E-05    3
 1.38954300E-08 1.17311767E-11-2.08108989E+04 2.74087990E+00                   4

CCHCH2O(S)              C   3H   3O   1     S298       1000      563           1
 2.42457111E+00 2.98637196E-02-1.90377749E-05 3.05033096E-09 1.02483661E-12    2
-1.08861043E+04-1.19723925E+01 5.93656184E-01 3.03832147E-02 6.24031376E-06    3
-5.06146039E-08 3.19075530E-11-1.04951630E+04-2.40589796E+00                   4

CCHCHO(S)               C   3H   2O   1     S298       1000      568           1
 3.23390582E+00 2.32412989E-02-1.38214587E-05 7.98938435E-10 1.46269743E-12    2
-7.53856320E+03-1.42634306E+01 8.42401761E-01 3.07386589E-02-1.26388005E-05    3
-2.08828691E-08 1.80321320E-11-7.13419235E+03-2.76669274E+00                   4

CCHCO(S)                C   3H   1O   1     S298       1000      644           1
 8.20097763E+00-2.48400347E-03 2.65798171E-05-3.00120543E-08 1.05074722E-11    2
-1.44314228E+04-3.84782442E+01-6.66794339E-01 4.12599378E-02-4.92053686E-05    3
 2.14309041E-08 1.13384093E-12-1.31594541E+04 1.93693406E+00                   4

CCCH2O(S)               C   3H   2O   1     S298       1000      561           1
 2.09300332E+00 3.19113626E-02-2.87601377E-05 1.28658497E-08-2.31421135E-12    2
-4.49075941E+03-1.08449688E+01 1.08156757E+00 3.08047918E-02-8.10084109E-06    3
-2.73178717E-08 2.01501977E-11-4.25373333E+03-5.35990404E+00                   4

CCCHO(S)                C   3H   1O   1     S298       1000      559           1
 2.88005963E+00 2.00036929E-02-1.89320269E-05 1.11914163E-08-3.35824039E-12    2
-4.32649296E+03-1.10365626E+01 3.44455101E+00 8.91037060E-03 2.45475960E-05    3